
     RDKit          3D

 36 37  0  0  0  0  0  0  0  0999 V2000
   -3.1737   -0.4090    2.2425 O   0  0  0  0  0  0  0  0  0  0  0  0
   -3.9488   -1.1268    1.3371 C   0  0  0  0  0  0  0  0  0  0  0  0
   -5.1975   -0.9622    1.3069 O   0  0  0  0  0  0  0  0  0  0  0  0
   -3.3008   -2.1199    0.4251 C   0  0  0  0  0  0  0  0  0  0  0  0
   -2.1264   -1.5654   -0.1664 O   0  0  0  0  0  0  0  0  0  0  0  0
   -2.0996   -0.5422   -1.1314 C   0  0  0  0  0  0  0  0  0  0  0  0
   -3.2824   -0.0385   -1.7110 C   0  0  0  0  0  0  0  0  0  0  0  0
   -3.2242    0.9410   -2.7060 C   0  0  0  0  0  0  0  0  0  0  0  0
   -4.7041    1.5542   -3.4215 Cl  0  0  0  0  0  0  0  0  0  0  0  0
   -1.9892    1.4252   -3.1381 C   0  0  0  0  0  0  0  0  0  0  0  0
   -0.8105    0.9419   -2.5688 C   0  0  0  0  0  0  0  0  0  0  0  0
   -0.8525   -0.0277   -1.5525 C   0  0  0  0  0  0  0  0  0  0  0  0
    0.4179   -0.4976   -0.9562 C   0  0  0  0  0  0  0  0  0  0  0  0
    1.4250   -0.6583   -1.6983 O   0  0  0  0  0  0  0  0  0  0  0  0
    0.5257   -0.7320    0.4568 N   0  0  0  0  0  0  0  0  0  0  0  0
    1.7363   -1.2714    1.0714 C   0  0  0  0  0  0  0  0  0  0  0  0
    2.8046   -0.2113    1.1387 C   0  0  0  0  0  0  0  0  0  0  0  0
    3.9631   -0.2897    0.3422 C   0  0  0  0  0  0  0  0  0  0  0  0
    4.1589   -1.3358   -0.5000 F   0  0  0  0  0  0  0  0  0  0  0  0
    4.9311    0.7180    0.4107 C   0  0  0  0  0  0  0  0  0  0  0  0
    4.7531    1.8082    1.2678 C   0  0  0  0  0  0  0  0  0  0  0  0
    6.0774    3.1815    1.3556 Br  0  0  0  0  0  0  0  0  0  0  0  0
    3.6041    1.8928    2.0593 C   0  0  0  0  0  0  0  0  0  0  0  0
    2.6335    0.8892    1.9951 C   0  0  0  0  0  0  0  0  0  0  0  0
   -3.5980    0.2608    2.8729 H   0  0  0  0  0  0  0  0  0  0  0  0
   -4.0040   -2.4679   -0.3619 H   0  0  0  0  0  0  0  0  0  0  0  0
   -3.0075   -3.0043    1.0274 H   0  0  0  0  0  0  0  0  0  0  0  0
   -4.2519   -0.4071   -1.4078 H   0  0  0  0  0  0  0  0  0  0  0  0
   -1.9410    2.1799   -3.9128 H   0  0  0  0  0  0  0  0  0  0  0  0
    0.1376    1.3401   -2.9096 H   0  0  0  0  0  0  0  0  0  0  0  0
   -0.2590   -0.4504    1.0866 H   0  0  0  0  0  0  0  0  0  0  0  0
    2.0731   -2.1700    0.5113 H   0  0  0  0  0  0  0  0  0  0  0  0
    1.5022   -1.6073    2.1049 H   0  0  0  0  0  0  0  0  0  0  0  0
    5.8199    0.6520   -0.2039 H   0  0  0  0  0  0  0  0  0  0  0  0
    3.4616    2.7361    2.7228 H   0  0  0  0  0  0  0  0  0  0  0  0
    1.7461    0.9697    2.6110 H   0  0  0  0  0  0  0  0  0  0  0  0
  1  2  1  0
  2  3  2  0
  2  4  1  0
  4  5  1  0
  5  6  1  0
  6  7  2  0
  7  8  1  0
  8  9  1  0
  8 10  2  0
 10 11  1  0
 11 12  2  0
 12 13  1  0
 13 14  2  0
 13 15  1  0
 15 16  1  0
 16 17  1  0
 17 18  2  0
 18 19  1  0
 18 20  1  0
 20 21  2  0
 21 22  1  0
 21 23  1  0
 23 24  2  0
 12  6  1  0
 24 17  1  0
  1 25  1  0
  4 26  1  0
  4 27  1  0
  7 28  1  0
 10 29  1  0
 11 30  1  0
 15 31  1  0
 16 32  1  0
 16 33  1  0
 20 34  1  0
 23 35  1  0
 24 36  1  0
M  END
$$$$
