
     RDKit          3D

 66 67  0  0  0  0  0  0  0  0999 V2000
   -4.5451   -5.2913   -1.9211 C   0  0  0  0  0  0  0  0  0  0  0  0
   -3.1527   -4.7525   -2.3087 C   0  0  0  0  0  0  0  0  0  0  0  0
   -2.0699   -5.6599   -1.6981 C   0  0  0  0  0  0  0  0  0  0  0  0
   -3.0263   -4.7584   -3.8450 C   0  0  0  0  0  0  0  0  0  0  0  0
   -2.9622   -3.3421   -1.7857 C   0  0  0  0  0  0  0  0  0  0  0  0
   -1.9796   -2.6552   -2.1833 O   0  0  0  0  0  0  0  0  0  0  0  0
   -3.8391   -2.8184   -0.8262 O   0  0  0  0  0  0  0  0  0  0  0  0
   -3.6731   -1.5267   -0.2522 C   0  0  0  0  0  0  0  0  0  0  0  0
   -2.4761   -1.5026    0.4871 O   0  0  0  0  0  0  0  0  0  0  0  0
   -2.2652    0.0627    1.1269 P   0  0  0  0  0  5  0  0  0  0  0  0
   -3.3168    0.3174    2.1861 O   0  0  0  0  0  0  0  0  0  0  0  0
   -0.6192    0.1113    1.8907 C   0  0  0  0  0  0  0  0  0  0  0  0
    0.3597    0.0205    0.8749 O   0  0  0  0  0  0  0  0  0  0  0  0
    0.9871   -1.2443    0.8964 C   0  0  0  0  0  0  0  0  0  0  0  0
    1.8230   -1.4249   -0.3694 C   0  0  0  0  0  0  0  0  0  0  0  0
    2.7211   -0.2891   -0.5715 N   0  0  0  0  0  0  0  0  0  0  0  0
    2.6141    0.6950   -1.5009 C   0  0  0  0  0  0  0  0  0  0  0  0
    3.5930    1.6367   -1.4040 N   0  0  0  0  0  0  0  0  0  0  0  0
    4.3221    1.2003   -0.3590 C   0  0  0  0  0  0  0  0  0  0  0  0
    5.4401    1.7702    0.2384 C   0  0  0  0  0  0  0  0  0  0  0  0
    6.0103    2.9882   -0.2405 N   0  0  0  0  0  0  0  0  0  0  0  0
    5.9777    1.1272    1.3181 N   0  0  0  0  0  0  0  0  0  0  0  0
    5.4347   -0.0372    1.8003 C   0  0  0  0  0  0  0  0  0  0  0  0
    4.3302   -0.5850    1.2090 N   0  0  0  0  0  0  0  0  0  0  0  0
    3.8030    0.0542    0.1369 C   0  0  0  0  0  0  0  0  0  0  0  0
   -2.3367    1.2121   -0.1412 O   0  0  0  0  0  0  0  0  0  0  0  0
   -2.7128    2.4735    0.3652 C   0  0  0  0  0  0  0  0  0  0  0  0
   -1.6639    3.0585    1.1357 O   0  0  0  0  0  0  0  0  0  0  0  0
   -0.4190    3.4088    0.5956 C   0  0  0  0  0  0  0  0  0  0  0  0
   -0.1590    3.1458   -0.6118 O   0  0  0  0  0  0  0  0  0  0  0  0
    0.6141    4.1238    1.4461 C   0  0  0  0  0  0  0  0  0  0  0  0
    1.9277    3.3198    1.4425 C   0  0  0  0  0  0  0  0  0  0  0  0
    0.1202    4.2734    2.8998 C   0  0  0  0  0  0  0  0  0  0  0  0
    0.8668    5.5239    0.8567 C   0  0  0  0  0  0  0  0  0  0  0  0
   -4.6941   -6.3176   -2.3213 H   0  0  0  0  0  0  0  0  0  0  0  0
   -5.3450   -4.6378   -2.3321 H   0  0  0  0  0  0  0  0  0  0  0  0
   -4.6584   -5.3345   -0.8161 H   0  0  0  0  0  0  0  0  0  0  0  0
   -2.1851   -6.7051   -2.0585 H   0  0  0  0  0  0  0  0  0  0  0  0
   -2.1429   -5.6619   -0.5887 H   0  0  0  0  0  0  0  0  0  0  0  0
   -1.0546   -5.3051   -1.9795 H   0  0  0  0  0  0  0  0  0  0  0  0
   -3.7828   -4.0829   -4.3002 H   0  0  0  0  0  0  0  0  0  0  0  0
   -3.1840   -5.7824   -4.2477 H   0  0  0  0  0  0  0  0  0  0  0  0
   -2.0169   -4.4175   -4.1620 H   0  0  0  0  0  0  0  0  0  0  0  0
   -4.5441   -1.3337    0.4122 H   0  0  0  0  0  0  0  0  0  0  0  0
   -3.6628   -0.7740   -1.0728 H   0  0  0  0  0  0  0  0  0  0  0  0
   -0.5525   -0.6794    2.6751 H   0  0  0  0  0  0  0  0  0  0  0  0
   -0.4983    1.0807    2.4104 H   0  0  0  0  0  0  0  0  0  0  0  0
    0.2389   -2.0703    0.9281 H   0  0  0  0  0  0  0  0  0  0  0  0
    1.6507   -1.3206    1.7863 H   0  0  0  0  0  0  0  0  0  0  0  0
    2.4191   -2.3595   -0.2897 H   0  0  0  0  0  0  0  0  0  0  0  0
    1.1438   -1.5279   -1.2442 H   0  0  0  0  0  0  0  0  0  0  0  0
    1.8257    0.7361   -2.2414 H   0  0  0  0  0  0  0  0  0  0  0  0
    6.8482    3.3957    0.2304 H   0  0  0  0  0  0  0  0  0  0  0  0
    5.5995    3.4885   -1.0599 H   0  0  0  0  0  0  0  0  0  0  0  0
    5.8809   -0.5229    2.6570 H   0  0  0  0  0  0  0  0  0  0  0  0
   -2.9396    3.1400   -0.4936 H   0  0  0  0  0  0  0  0  0  0  0  0
   -3.6467    2.4231    0.9653 H   0  0  0  0  0  0  0  0  0  0  0  0
    2.3367    3.2479    0.4135 H   0  0  0  0  0  0  0  0  0  0  0  0
    1.7613    2.2909    1.8276 H   0  0  0  0  0  0  0  0  0  0  0  0
    2.6928    3.8124    2.0807 H   0  0  0  0  0  0  0  0  0  0  0  0
   -0.8246    4.8581    2.9359 H   0  0  0  0  0  0  0  0  0  0  0  0
   -0.0637    3.2788    3.3587 H   0  0  0  0  0  0  0  0  0  0  0  0
    0.8769    4.8030    3.5184 H   0  0  0  0  0  0  0  0  0  0  0  0
    1.2512    5.4512   -0.1839 H   0  0  0  0  0  0  0  0  0  0  0  0
    1.6167    6.0757    1.4639 H   0  0  0  0  0  0  0  0  0  0  0  0
   -0.0744    6.1154    0.8402 H   0  0  0  0  0  0  0  0  0  0  0  0
  1  2  1  0
  2  3  1  0
  2  4  1  0
  2  5  1  0
  5  6  2  0
  5  7  1  0
  7  8  1  0
  8  9  1  0
  9 10  1  0
 10 11  2  0
 10 12  1  0
 12 13  1  0
 13 14  1  0
 14 15  1  0
 15 16  1  0
 16 17  1  0
 17 18  2  0
 18 19  1  0
 19 20  2  0
 20 21  1  0
 20 22  1  0
 22 23  2  0
 23 24  1  0
 24 25  2  0
 10 26  1  0
 26 27  1  0
 27 28  1  0
 28 29  1  0
 29 30  2  0
 29 31  1  0
 31 32  1  0
 31 33  1  0
 31 34  1  0
 25 16  1  0
 25 19  1  0
  1 35  1  0
  1 36  1  0
  1 37  1  0
  3 38  1  0
  3 39  1  0
  3 40  1  0
  4 41  1  0
  4 42  1  0
  4 43  1  0
  8 44  1  0
  8 45  1  0
 12 46  1  0
 12 47  1  0
 14 48  1  0
 14 49  1  0
 15 50  1  0
 15 51  1  0
 17 52  1  0
 21 53  1  0
 21 54  1  0
 23 55  1  0
 27 56  1  0
 27 57  1  0
 32 58  1  0
 32 59  1  0
 32 60  1  0
 33 61  1  0
 33 62  1  0
 33 63  1  0
 34 64  1  0
 34 65  1  0
 34 66  1  0
M  END
$$$$
