
     RDKit          3D

 49 52  0  0  0  0  0  0  0  0999 V2000
    0.9490    1.6636    0.0029 O   0  0  0  0  0  0  0  0  0  0  0  0
    0.2683    0.6143   -0.1522 C   0  0  0  0  0  0  0  0  0  0  0  0
    0.8582   -0.7461   -0.3813 C   0  0  0  0  0  0  0  0  0  0  0  0
    1.7224   -1.1763    0.8204 C   0  0  0  0  0  0  0  0  0  0  0  0
    2.4964   -2.4861    0.5953 C   0  0  0  0  0  0  0  0  0  0  0  0
    3.9181   -2.3464   -0.5307 S   0  0  0  0  0  4  0  0  0  0  0  0
    3.3456   -2.1970   -1.9339 O   0  0  0  0  0  0  0  0  0  0  0  0
    4.7814   -0.8223   -0.1912 C   0  0  0  0  0  0  0  0  0  0  0  0
    5.8995   -0.8431    0.6524 C   0  0  0  0  0  0  0  0  0  0  0  0
    6.5885    0.3404    0.9363 C   0  0  0  0  0  0  0  0  0  0  0  0
    6.1653    1.5487    0.3749 C   0  0  0  0  0  0  0  0  0  0  0  0
    5.0548    1.5739   -0.4738 C   0  0  0  0  0  0  0  0  0  0  0  0
    4.3653    0.3917   -0.7604 C   0  0  0  0  0  0  0  0  0  0  0  0
   -0.4109   -1.5432   -0.4906 C   0  0  0  0  0  0  0  0  0  0  0  0
   -0.4597   -2.7591   -0.8174 O   0  0  0  0  0  0  0  0  0  0  0  0
   -1.5716   -0.7392   -0.2866 N   0  0  0  0  0  0  0  0  0  0  0  0
   -1.1567    0.5860   -0.1023 N   0  0  0  0  0  0  0  0  0  0  0  0
   -1.9802    1.6394    0.4274 C   0  0  0  0  0  0  0  0  0  0  0  0
   -1.8319    2.9551   -0.0402 C   0  0  0  0  0  0  0  0  0  0  0  0
   -2.6376    3.9789    0.4678 C   0  0  0  0  0  0  0  0  0  0  0  0
   -3.5944    3.6970    1.4465 C   0  0  0  0  0  0  0  0  0  0  0  0
   -3.7460    2.3910    1.9197 C   0  0  0  0  0  0  0  0  0  0  0  0
   -2.9419    1.3649    1.4144 C   0  0  0  0  0  0  0  0  0  0  0  0
   -2.9169   -1.1455   -0.5933 C   0  0  0  0  0  0  0  0  0  0  0  0
   -3.4171   -2.3606   -0.0983 C   0  0  0  0  0  0  0  0  0  0  0  0
   -4.7275   -2.7537   -0.3871 C   0  0  0  0  0  0  0  0  0  0  0  0
   -5.5461   -1.9385   -1.1734 C   0  0  0  0  0  0  0  0  0  0  0  0
   -5.0548   -0.7297   -1.6733 C   0  0  0  0  0  0  0  0  0  0  0  0
   -3.7449   -0.3336   -1.3868 C   0  0  0  0  0  0  0  0  0  0  0  0
    1.4107   -0.7540   -1.3404 H   0  0  0  0  0  0  0  0  0  0  0  0
    2.4370   -0.3703    1.0864 H   0  0  0  0  0  0  0  0  0  0  0  0
    1.0650   -1.3087    1.7088 H   0  0  0  0  0  0  0  0  0  0  0  0
    2.8925   -2.8234    1.5764 H   0  0  0  0  0  0  0  0  0  0  0  0
    1.8206   -3.2847    0.2283 H   0  0  0  0  0  0  0  0  0  0  0  0
    6.2324   -1.7741    1.0936 H   0  0  0  0  0  0  0  0  0  0  0  0
    7.4495    0.3209    1.5917 H   0  0  0  0  0  0  0  0  0  0  0  0
    6.6985    2.4642    0.5957 H   0  0  0  0  0  0  0  0  0  0  0  0
    4.7290    2.5091   -0.9105 H   0  0  0  0  0  0  0  0  0  0  0  0
    3.5115    0.4259   -1.4226 H   0  0  0  0  0  0  0  0  0  0  0  0
   -1.1056    3.1838   -0.8094 H   0  0  0  0  0  0  0  0  0  0  0  0
   -2.5226    4.9903    0.0999 H   0  0  0  0  0  0  0  0  0  0  0  0
   -4.2177    4.4904    1.8384 H   0  0  0  0  0  0  0  0  0  0  0  0
   -4.4848    2.1739    2.6803 H   0  0  0  0  0  0  0  0  0  0  0  0
   -3.0611    0.3606    1.8000 H   0  0  0  0  0  0  0  0  0  0  0  0
   -2.7980   -2.9937    0.5243 H   0  0  0  0  0  0  0  0  0  0  0  0
   -5.1094   -3.6889    0.0015 H   0  0  0  0  0  0  0  0  0  0  0  0
   -6.5604   -2.2439   -1.3958 H   0  0  0  0  0  0  0  0  0  0  0  0
   -5.6880   -0.1006   -2.2855 H   0  0  0  0  0  0  0  0  0  0  0  0
   -3.3737    0.5986   -1.7926 H   0  0  0  0  0  0  0  0  0  0  0  0
  1  2  2  0
  2  3  1  0
  3  4  1  0
  4  5  1  0
  5  6  1  0
  6  7  2  0
  6  8  1  0
  8  9  2  0
  9 10  1  0
 10 11  2  0
 11 12  1  0
 12 13  2  0
  3 14  1  0
 14 15  2  0
 14 16  1  0
 16 17  1  0
 17 18  1  0
 18 19  2  0
 19 20  1  0
 20 21  2  0
 21 22  1  0
 22 23  2  0
 16 24  1  0
 24 25  2  0
 25 26  1  0
 26 27  2  0
 27 28  1  0
 28 29  2  0
 17  2  1  0
 23 18  1  0
 29 24  1  0
 13  8  1  0
  3 30  1  0
  4 31  1  0
  4 32  1  0
  5 33  1  0
  5 34  1  0
  9 35  1  0
 10 36  1  0
 11 37  1  0
 12 38  1  0
 13 39  1  0
 19 40  1  0
 20 41  1  0
 21 42  1  0
 22 43  1  0
 23 44  1  0
 25 45  1  0
 26 46  1  0
 27 47  1  0
 28 48  1  0
 29 49  1  0
M  END
$$$$
