
     RDKit          3D

  9  8  0  0  0  0  0  0  0  0999 V2000
   -1.6082    0.1694    0.4326 N   0  0  0  0  0  0  0  0  0  0  0  0
   -0.4670    0.1657   -0.4270 C   0  0  0  0  0  0  0  0  0  0  0  0
   -0.6087    0.4433   -1.6475 O   0  0  0  0  0  0  0  0  0  0  0  0
    0.8694   -0.1572    0.0924 C   0  0  0  0  0  0  0  0  0  0  0  0
    1.9651   -0.1539   -0.7657 O   0  0  0  0  0  0  0  0  0  0  0  0
    1.0296   -0.4373    1.3104 O   0  0  0  0  0  0  0  0  0  0  0  0
   -2.5519    0.4007    0.0500 H   0  0  0  0  0  0  0  0  0  0  0  0
   -1.5214   -0.0566    1.4482 H   0  0  0  0  0  0  0  0  0  0  0  0
    2.8932   -0.3741   -0.4244 H   0  0  0  0  0  0  0  0  0  0  0  0
  1  2  1  0
  2  3  2  0
  2  4  1  0
  4  5  1  0
  4  6  2  0
  1  7  1  0
  1  8  1  0
  5  9  1  0
M  END
$$$$
