
     RDKit          3D

 24 24  0  0  0  0  0  0  0  0999 V2000
   -0.8724   -1.5691    0.1528 C   0  0  1  0  0  0  0  0  0  0  0  0
   -0.9363   -2.1198   -1.1377 O   0  0  0  0  0  0  0  0  0  0  0  0
    0.5645   -1.2533    0.4918 C   0  0  0  0  0  0  0  0  0  0  0  0
    1.1015   -0.0202    0.3681 C   0  0  0  0  0  0  0  0  0  0  0  0
    2.5543    0.1776    0.7349 C   0  0  0  0  0  0  0  0  0  0  0  0
    3.3819   -0.4764   -0.1878 O   0  0  0  0  0  0  0  0  0  0  0  0
    0.2540    1.1975    0.0305 C   0  0  1  0  0  0  0  0  0  0  0  0
    0.9523    2.0038   -0.8841 O   0  0  0  0  0  0  0  0  0  0  0  0
   -1.1249    0.8313   -0.5634 C   0  0  2  0  0  0  0  0  0  0  0  0
   -1.9742    1.9497   -0.5172 O   0  0  0  0  0  0  0  0  0  0  0  0
   -1.7618   -0.3154    0.2329 C   0  0  1  0  0  0  0  0  0  0  0  0
   -3.0384   -0.5938   -0.2830 O   0  0  0  0  0  0  0  0  0  0  0  0
   -1.2552   -2.3083    0.8941 H   0  0  0  0  0  0  0  0  0  0  0  0
   -0.5950   -3.0500   -1.0707 H   0  0  0  0  0  0  0  0  0  0  0  0
    1.2033   -2.0867    0.7733 H   0  0  0  0  0  0  0  0  0  0  0  0
    2.7406   -0.2425    1.7464 H   0  0  0  0  0  0  0  0  0  0  0  0
    2.8146    1.2593    0.7813 H   0  0  0  0  0  0  0  0  0  0  0  0
    3.3648    0.0680   -1.0181 H   0  0  0  0  0  0  0  0  0  0  0  0
    0.0976    1.7524    0.9861 H   0  0  0  0  0  0  0  0  0  0  0  0
    0.6382    2.9359   -0.7492 H   0  0  0  0  0  0  0  0  0  0  0  0
   -0.9954    0.4980   -1.6216 H   0  0  0  0  0  0  0  0  0  0  0  0
   -1.7565    2.5116   -1.3061 H   0  0  0  0  0  0  0  0  0  0  0  0
   -1.8532    0.0018    1.2995 H   0  0  0  0  0  0  0  0  0  0  0  0
   -3.5045   -1.1512    0.3938 H   0  0  0  0  0  0  0  0  0  0  0  0
  1  2  1  0
  1  3  1  0
  3  4  2  0
  4  5  1  0
  5  6  1  0
  4  7  1  0
  7  8  1  0
  7  9  1  0
  9 10  1  0
  9 11  1  0
 11 12  1  0
 11  1  1  0
  1 13  1  1
  2 14  1  0
  3 15  1  0
  5 16  1  0
  5 17  1  0
  6 18  1  0
  7 19  1  1
  8 20  1  0
  9 21  1  6
 10 22  1  0
 11 23  1  1
 12 24  1  0
M  END
$$$$
