
     RDKit          3D

 30 31  0  0  0  0  0  0  0  0999 V2000
   -0.2547    2.6951   -0.9883 C   0  0  0  0  0  0  0  0  0  0  0  0
   -0.6173    1.3701   -1.6507 C   0  0  0  0  0  0  0  0  0  0  0  0
   -1.2303    0.4205   -0.6530 C   0  0  0  0  0  0  0  0  0  0  0  0
   -2.5822    0.4292   -0.5101 N   0  0  0  0  0  0  0  0  0  0  0  0
   -3.2069   -0.3619    0.3975 C   0  0  0  0  0  0  0  0  0  0  0  0
   -4.6272   -0.3295    0.5145 N   0  0  0  0  0  0  0  0  0  0  0  0
   -2.4783   -1.1811    1.1961 N   0  0  0  0  0  0  0  0  0  0  0  0
   -1.1233   -1.2323    1.1135 C   0  0  0  0  0  0  0  0  0  0  0  0
   -0.4138   -2.1262    1.9783 N   0  0  0  0  0  0  0  0  0  0  0  0
   -0.4512   -0.4184    0.1768 C   0  0  0  0  0  0  0  0  0  0  0  0
    1.0230   -0.4413    0.0783 C   0  0  0  0  0  0  0  0  0  0  0  0
    1.6513   -1.1575   -0.9520 C   0  0  0  0  0  0  0  0  0  0  0  0
    3.0467   -1.1840   -1.0378 C   0  0  0  0  0  0  0  0  0  0  0  0
    3.8197   -0.5014   -0.0937 C   0  0  0  0  0  0  0  0  0  0  0  0
    3.1983    0.2072    0.9390 C   0  0  0  0  0  0  0  0  0  0  0  0
    1.8032    0.2360    1.0281 C   0  0  0  0  0  0  0  0  0  0  0  0
    0.5012    2.5380   -0.1908 H   0  0  0  0  0  0  0  0  0  0  0  0
   -1.1594    3.1653   -0.5468 H   0  0  0  0  0  0  0  0  0  0  0  0
    0.1704    3.3854   -1.7469 H   0  0  0  0  0  0  0  0  0  0  0  0
   -1.3459    1.5662   -2.4671 H   0  0  0  0  0  0  0  0  0  0  0  0
    0.2842    0.9295   -2.1241 H   0  0  0  0  0  0  0  0  0  0  0  0
   -5.1937    0.3000   -0.0963 H   0  0  0  0  0  0  0  0  0  0  0  0
   -5.1142   -0.9350    1.2120 H   0  0  0  0  0  0  0  0  0  0  0  0
    0.6228   -2.2381    1.9350 H   0  0  0  0  0  0  0  0  0  0  0  0
   -0.9395   -2.7070    2.6686 H   0  0  0  0  0  0  0  0  0  0  0  0
    1.0606   -1.6914   -1.6863 H   0  0  0  0  0  0  0  0  0  0  0  0
    3.5290   -1.7344   -1.8353 H   0  0  0  0  0  0  0  0  0  0  0  0
    4.8997   -0.5230   -0.1613 H   0  0  0  0  0  0  0  0  0  0  0  0
    3.7977    0.7333    1.6707 H   0  0  0  0  0  0  0  0  0  0  0  0
    1.3303    0.7865    1.8322 H   0  0  0  0  0  0  0  0  0  0  0  0
  1  2  1  0
  2  3  1  0
  3  4  2  0
  4  5  1  0
  5  6  1  0
  5  7  2  0
  7  8  1  0
  8  9  1  0
  8 10  2  0
 10 11  1  0
 11 12  2  0
 12 13  1  0
 13 14  2  0
 14 15  1  0
 15 16  2  0
 10  3  1  0
 16 11  1  0
  1 17  1  0
  1 18  1  0
  1 19  1  0
  2 20  1  0
  2 21  1  0
  6 22  1  0
  6 23  1  0
  9 24  1  0
  9 25  1  0
 12 26  1  0
 13 27  1  0
 14 28  1  0
 15 29  1  0
 16 30  1  0
M  END
$$$$
