
     RDKit          3D

 28 29  0  0  0  0  0  0  0  0999 V2000
    2.7413   -2.2839   -0.4789 O   0  0  0  0  0  0  0  0  0  0  0  0
    2.5881   -1.2137    0.4117 C   0  0  0  0  0  0  0  0  0  0  0  0
    2.1998    0.0520   -0.3619 C   0  0  1  0  0  0  0  0  0  0  0  0
    1.0057   -0.1881   -1.0801 O   0  0  0  0  0  0  0  0  0  0  0  0
    0.0503    0.7630   -0.6617 C   0  0  2  0  0  0  0  0  0  0  0  0
    0.5008    1.3582    0.6595 C   0  0  0  0  0  0  0  0  0  0  0  0
    1.9972    1.2457    0.5778 C   0  0  2  0  0  0  0  0  0  0  0  0
    2.5413    2.4037   -0.0032 O   0  0  0  0  0  0  0  0  0  0  0  0
   -1.2873    0.1484   -0.5331 N   0  0  0  0  0  0  0  0  0  0  0  0
   -1.4058   -1.1324   -0.0639 C   0  0  0  0  0  0  0  0  0  0  0  0
   -2.6588   -1.7183    0.0935 C   0  0  0  0  0  0  0  0  0  0  0  0
   -2.7687   -2.9914    0.5500 F   0  0  0  0  0  0  0  0  0  0  0  0
   -3.7895   -0.9705   -0.2196 C   0  0  0  0  0  0  0  0  0  0  0  0
   -4.9372   -1.4740   -0.0886 O   0  0  0  0  0  0  0  0  0  0  0  0
   -3.6521    0.3066   -0.6617 N   0  0  0  0  0  0  0  0  0  0  0  0
   -2.4218    0.8720   -0.8112 C   0  0  0  0  0  0  0  0  0  0  0  0
   -2.3403    2.0686   -1.2040 O   0  0  0  0  0  0  0  0  0  0  0  0
    2.9789   -3.0716    0.0760 H   0  0  0  0  0  0  0  0  0  0  0  0
    1.7980   -1.4562    1.1578 H   0  0  0  0  0  0  0  0  0  0  0  0
    3.5479   -1.0393    0.9483 H   0  0  0  0  0  0  0  0  0  0  0  0
    3.0139    0.2734   -1.0880 H   0  0  0  0  0  0  0  0  0  0  0  0
    0.0358    1.5669   -1.4325 H   0  0  0  0  0  0  0  0  0  0  0  0
    0.1298    0.7474    1.5127 H   0  0  0  0  0  0  0  0  0  0  0  0
    0.1545    2.4083    0.7782 H   0  0  0  0  0  0  0  0  0  0  0  0
    2.4437    1.0760    1.5865 H   0  0  0  0  0  0  0  0  0  0  0  0
    2.5698    3.0937    0.7102 H   0  0  0  0  0  0  0  0  0  0  0  0
   -0.5287   -1.7115    0.1964 H   0  0  0  0  0  0  0  0  0  0  0  0
   -4.5065    0.8669   -0.8854 H   0  0  0  0  0  0  0  0  0  0  0  0
  1  2  1  0
  2  3  1  0
  3  4  1  0
  4  5  1  0
  5  6  1  0
  6  7  1  0
  7  8  1  0
  5  9  1  0
  9 10  1  0
 10 11  2  0
 11 12  1  0
 11 13  1  0
 13 14  2  0
 13 15  1  0
 15 16  1  0
 16 17  2  0
  7  3  1  0
 16  9  1  0
  1 18  1  0
  2 19  1  0
  2 20  1  0
  3 21  1  6
  5 22  1  6
  6 23  1  0
  6 24  1  0
  7 25  1  1
  8 26  1  0
 10 27  1  0
 15 28  1  0
M  END
$$$$
