
     RDKit          3D

 38 40  0  0  0  0  0  0  0  0999 V2000
    3.4903    2.4574    2.9674 C   0  0  0  0  0  0  0  0  0  0  0  0
    3.4372    1.0345    2.9724 O   0  0  0  0  0  0  0  0  0  0  0  0
    2.8532    0.2598    1.9587 C   0  0  0  0  0  0  0  0  0  0  0  0
    2.8665   -1.1346    2.0917 C   0  0  0  0  0  0  0  0  0  0  0  0
    3.4332   -1.7060    3.1836 F   0  0  0  0  0  0  0  0  0  0  0  0
    2.2937   -1.9464    1.1079 C   0  0  0  0  0  0  0  0  0  0  0  0
    1.6965   -1.3738   -0.0247 C   0  0  0  0  0  0  0  0  0  0  0  0
    1.6867    0.0224   -0.1634 C   0  0  0  0  0  0  0  0  0  0  0  0
    2.2577    0.8348    0.8198 C   0  0  0  0  0  0  0  0  0  0  0  0
    1.0805   -2.2316   -1.0606 C   0  0  0  0  0  0  0  0  0  0  0  0
    1.6742   -3.3089   -1.6898 C   0  0  0  0  0  0  0  0  0  0  0  0
    3.2849   -3.9412   -1.3980 Cl  0  0  0  0  0  0  0  0  0  0  0  0
    0.8577   -3.7825   -2.6512 N   0  0  0  0  0  0  0  0  0  0  0  0
   -0.2286   -2.9840   -2.5886 C   0  0  0  0  0  0  0  0  0  0  0  0
   -0.1261   -2.0340   -1.6350 N   0  0  0  0  0  0  0  0  0  0  0  0
   -1.1406   -1.0730   -1.2910 C   0  0  0  0  0  0  0  0  0  0  0  0
   -1.8439   -0.3975   -2.3011 C   0  0  0  0  0  0  0  0  0  0  0  0
   -2.8276    0.5396   -1.9724 C   0  0  0  0  0  0  0  0  0  0  0  0
   -3.1308    0.8026   -0.6302 C   0  0  0  0  0  0  0  0  0  0  0  0
   -2.4376    0.1252    0.3810 C   0  0  0  0  0  0  0  0  0  0  0  0
   -1.4543   -0.8122    0.0536 C   0  0  0  0  0  0  0  0  0  0  0  0
   -4.3533    1.9999   -0.2149 S   0  0  0  0  0  6  0  0  0  0  0  0
   -3.6081    3.5479   -0.0257 N   0  0  0  0  0  0  0  0  0  0  0  0
   -5.0318    1.6095    1.0682 O   0  0  0  0  0  0  0  0  0  0  0  0
   -5.3875    2.0714   -1.3033 O   0  0  0  0  0  0  0  0  0  0  0  0
    2.4626    2.8778    2.9541 H   0  0  0  0  0  0  0  0  0  0  0  0
    4.0041    2.8042    3.8873 H   0  0  0  0  0  0  0  0  0  0  0  0
    4.0615    2.8151    2.0848 H   0  0  0  0  0  0  0  0  0  0  0  0
    2.2997   -3.0213    1.2395 H   0  0  0  0  0  0  0  0  0  0  0  0
    1.2426    0.4838   -1.0368 H   0  0  0  0  0  0  0  0  0  0  0  0
    2.2324    1.9073    0.6838 H   0  0  0  0  0  0  0  0  0  0  0  0
   -1.0940   -3.1097   -3.2269 H   0  0  0  0  0  0  0  0  0  0  0  0
   -1.6162   -0.5835   -3.3430 H   0  0  0  0  0  0  0  0  0  0  0  0
   -3.3476    1.0629   -2.7646 H   0  0  0  0  0  0  0  0  0  0  0  0
   -2.6580    0.3213    1.4226 H   0  0  0  0  0  0  0  0  0  0  0  0
   -0.9443   -1.3407    0.8485 H   0  0  0  0  0  0  0  0  0  0  0  0
   -2.8711    3.4438    0.7073 H   0  0  0  0  0  0  0  0  0  0  0  0
   -3.1138    3.7597   -0.9213 H   0  0  0  0  0  0  0  0  0  0  0  0
  1  2  1  0
  2  3  1  0
  3  4  2  0
  4  5  1  0
  4  6  1  0
  6  7  2  0
  7  8  1  0
  8  9  2  0
  7 10  1  0
 10 11  2  0
 11 12  1  0
 11 13  1  0
 13 14  2  0
 14 15  1  0
 15 16  1  0
 16 17  2  0
 17 18  1  0
 18 19  2  0
 19 20  1  0
 20 21  2  0
 19 22  1  0
 22 23  1  0
 22 24  2  0
 22 25  2  0
  9  3  1  0
 15 10  1  0
 21 16  1  0
  1 26  1  0
  1 27  1  0
  1 28  1  0
  6 29  1  0
  8 30  1  0
  9 31  1  0
 14 32  1  0
 17 33  1  0
 18 34  1  0
 20 35  1  0
 21 36  1  0
 23 37  1  0
 23 38  1  0
M  END
$$$$
