
     RDKit          3D

 36 38  0  0  0  0  0  0  0  0999 V2000
   -1.8531   -1.6894   -2.3487 F   0  0  0  0  0  0  0  0  0  0  0  0
   -2.1398   -0.3376   -2.4096 C   0  0  0  0  0  0  0  0  0  0  0  0
   -2.8052   -0.0735   -3.5926 F   0  0  0  0  0  0  0  0  0  0  0  0
   -0.9572    0.3798   -2.3906 F   0  0  0  0  0  0  0  0  0  0  0  0
   -3.0207    0.0712   -1.2283 C   0  0  0  0  0  0  0  0  0  0  0  0
   -2.3393   -0.2000    0.0474 N   0  0  0  0  0  0  0  0  0  0  0  0
   -1.5129    0.8217    0.6441 C   0  0  0  0  0  0  0  0  0  0  0  0
   -0.1428    0.5926    0.9303 C   0  0  0  0  0  0  0  0  0  0  0  0
    0.6190    1.6240    1.5096 C   0  0  0  0  0  0  0  0  0  0  0  0
    0.0416    2.8629    1.7961 C   0  0  0  0  0  0  0  0  0  0  0  0
    1.0092    4.1364    2.5163 Cl  0  0  0  0  0  0  0  0  0  0  0  0
   -1.3068    3.0847    1.5169 C   0  0  0  0  0  0  0  0  0  0  0  0
   -2.0793    2.0715    0.9486 C   0  0  0  0  0  0  0  0  0  0  0  0
    0.5161   -0.7148    0.6427 C   0  0  0  0  0  0  0  0  0  0  0  0
   -0.0489   -1.8411    0.9776 N   0  0  0  0  0  0  0  0  0  0  0  0
   -1.3602   -1.9661    1.6034 C   0  0  0  0  0  0  0  0  0  0  0  0
   -2.4074   -1.5142    0.6357 C   0  0  0  0  0  0  0  0  0  0  0  0
   -3.3345   -2.3075    0.3171 O   0  0  0  0  0  0  0  0  0  0  0  0
    1.8523   -0.7579   -0.0075 C   0  0  0  0  0  0  0  0  0  0  0  0
    2.2511    0.2542   -0.9023 C   0  0  0  0  0  0  0  0  0  0  0  0
    3.5040    0.2008   -1.5202 C   0  0  0  0  0  0  0  0  0  0  0  0
    4.3696   -0.8633   -1.2591 C   0  0  0  0  0  0  0  0  0  0  0  0
    3.9826   -1.8787   -0.3821 C   0  0  0  0  0  0  0  0  0  0  0  0
    2.7305   -1.8309    0.2385 C   0  0  0  0  0  0  0  0  0  0  0  0
   -3.9866   -0.4763   -1.2769 H   0  0  0  0  0  0  0  0  0  0  0  0
   -3.2636    1.1508   -1.3231 H   0  0  0  0  0  0  0  0  0  0  0  0
    1.6636    1.4624    1.7470 H   0  0  0  0  0  0  0  0  0  0  0  0
   -1.7599    4.0410    1.7453 H   0  0  0  0  0  0  0  0  0  0  0  0
   -3.1288    2.2566    0.7585 H   0  0  0  0  0  0  0  0  0  0  0  0
   -1.5258   -3.0300    1.8765 H   0  0  0  0  0  0  0  0  0  0  0  0
   -1.4056   -1.3590    2.5333 H   0  0  0  0  0  0  0  0  0  0  0  0
    1.5904    1.0796   -1.1354 H   0  0  0  0  0  0  0  0  0  0  0  0
    3.8019    0.9834   -2.2060 H   0  0  0  0  0  0  0  0  0  0  0  0
    5.3389   -0.9028   -1.7390 H   0  0  0  0  0  0  0  0  0  0  0  0
    4.6535   -2.7042   -0.1823 H   0  0  0  0  0  0  0  0  0  0  0  0
    2.4540   -2.6266    0.9189 H   0  0  0  0  0  0  0  0  0  0  0  0
  1  2  1  0
  2  3  1  0
  2  4  1  0
  2  5  1  0
  5  6  1  0
  6  7  1  0
  7  8  2  0
  8  9  1  0
  9 10  2  0
 10 11  1  0
 10 12  1  0
 12 13  2  0
  8 14  1  0
 14 15  2  0
 15 16  1  0
 16 17  1  0
 17 18  2  0
 14 19  1  0
 19 20  2  0
 20 21  1  0
 21 22  2  0
 22 23  1  0
 23 24  2  0
 17  6  1  0
 24 19  1  0
 13  7  1  0
  5 25  1  0
  5 26  1  0
  9 27  1  0
 12 28  1  0
 13 29  1  0
 16 30  1  0
 16 31  1  0
 20 32  1  0
 21 33  1  0
 22 34  1  0
 23 35  1  0
 24 36  1  0
M  END
$$$$
