
     RDKit          3D

 42 43  0  0  0  0  0  0  0  0999 V2000
   -4.7594    3.3464    0.7876 C   0  0  0  0  0  0  0  0  0  0  0  0
   -3.4720    2.8435    0.2293 C   0  0  0  0  0  0  0  0  0  0  0  0
   -2.4535    3.5870    0.2424 O   0  0  0  0  0  0  0  0  0  0  0  0
   -3.4241    1.5712   -0.3509 O   0  0  0  0  0  0  0  0  0  0  0  0
   -2.2291    0.9903   -0.8723 C   0  0  0  0  0  0  0  0  0  0  0  0
   -1.2878    0.5270    0.2633 C   0  0  0  0  0  0  0  0  0  0  0  0
   -0.0087   -0.1403   -0.2933 C   0  0  0  0  0  0  0  0  0  0  0  0
    0.9461    0.8602   -0.9581 C   0  0  0  0  0  0  0  0  0  0  0  0
    2.1916    0.1919   -1.3263 N   0  0  0  0  0  0  0  0  0  0  0  0
    2.4729   -0.4579   -2.4851 C   0  0  0  0  0  0  0  0  0  0  0  0
    3.6943   -1.0619   -2.4821 N   0  0  0  0  0  0  0  0  0  0  0  0
    4.1655   -0.7676   -1.2560 C   0  0  0  0  0  0  0  0  0  0  0  0
    5.3629   -1.1375   -0.6642 C   0  0  0  0  0  0  0  0  0  0  0  0
    5.5862   -0.7292    0.6204 N   0  0  0  0  0  0  0  0  0  0  0  0
    4.6606    0.0184    1.3071 C   0  0  0  0  0  0  0  0  0  0  0  0
    4.9281    0.4227    2.6476 N   0  0  0  0  0  0  0  0  0  0  0  0
    3.4814    0.3743    0.7108 N   0  0  0  0  0  0  0  0  0  0  0  0
    3.2695   -0.0284   -0.5653 C   0  0  0  0  0  0  0  0  0  0  0  0
   -2.0216   -0.4156    1.2432 C   0  0  0  0  0  0  0  0  0  0  0  0
   -2.5983   -1.5350    0.5681 O   0  0  0  0  0  0  0  0  0  0  0  0
   -1.9447   -2.7590    0.3867 C   0  0  0  0  0  0  0  0  0  0  0  0
   -2.6081   -3.8317   -0.4074 C   0  0  0  0  0  0  0  0  0  0  0  0
   -0.8279   -2.9843    0.9270 O   0  0  0  0  0  0  0  0  0  0  0  0
   -5.2876    3.9454    0.0172 H   0  0  0  0  0  0  0  0  0  0  0  0
   -5.4007    2.4916    1.0883 H   0  0  0  0  0  0  0  0  0  0  0  0
   -4.5673    3.9807    1.6785 H   0  0  0  0  0  0  0  0  0  0  0  0
   -1.7249    1.7280   -1.5310 H   0  0  0  0  0  0  0  0  0  0  0  0
   -2.5093    0.1199   -1.5031 H   0  0  0  0  0  0  0  0  0  0  0  0
   -0.9793    1.4204    0.8496 H   0  0  0  0  0  0  0  0  0  0  0  0
   -0.2766   -0.9307   -1.0279 H   0  0  0  0  0  0  0  0  0  0  0  0
    0.5402   -0.6249    0.5439 H   0  0  0  0  0  0  0  0  0  0  0  0
    1.1687    1.6966   -0.2600 H   0  0  0  0  0  0  0  0  0  0  0  0
    0.4835    1.2891   -1.8715 H   0  0  0  0  0  0  0  0  0  0  0  0
    1.7911   -0.5060   -3.3244 H   0  0  0  0  0  0  0  0  0  0  0  0
    6.0957   -1.7326   -1.1926 H   0  0  0  0  0  0  0  0  0  0  0  0
    5.8245    0.1552    3.1113 H   0  0  0  0  0  0  0  0  0  0  0  0
    4.2299    0.9897    3.1778 H   0  0  0  0  0  0  0  0  0  0  0  0
   -2.8409    0.1478    1.7379 H   0  0  0  0  0  0  0  0  0  0  0  0
   -1.3411   -0.7487    2.0574 H   0  0  0  0  0  0  0  0  0  0  0  0
   -1.8486   -4.4164   -0.9681 H   0  0  0  0  0  0  0  0  0  0  0  0
   -3.1623   -4.5084    0.2755 H   0  0  0  0  0  0  0  0  0  0  0  0
   -3.3191   -3.3813   -1.1314 H   0  0  0  0  0  0  0  0  0  0  0  0
  1  2  1  0
  2  3  2  0
  2  4  1  0
  4  5  1  0
  5  6  1  0
  6  7  1  0
  7  8  1  0
  8  9  1  0
  9 10  1  0
 10 11  2  0
 11 12  1  0
 12 13  2  0
 13 14  1  0
 14 15  2  0
 15 16  1  0
 15 17  1  0
 17 18  2  0
  6 19  1  0
 19 20  1  0
 20 21  1  0
 21 22  1  0
 21 23  2  0
 18  9  1  0
 18 12  1  0
  1 24  1  0
  1 25  1  0
  1 26  1  0
  5 27  1  0
  5 28  1  0
  6 29  1  0
  7 30  1  0
  7 31  1  0
  8 32  1  0
  8 33  1  0
 10 34  1  0
 13 35  1  0
 16 36  1  0
 16 37  1  0
 19 38  1  0
 19 39  1  0
 22 40  1  0
 22 41  1  0
 22 42  1  0
M  END
$$$$
