
     RDKit          3D

 63 67  0  0  0  0  0  0  0  0999 V2000
   -1.0302   -1.1096    3.5140 C   0  0  0  0  0  0  0  0  0  0  0  0
    0.2093   -1.5637    2.7471 C   0  0  0  0  0  0  0  0  0  0  0  0
   -0.0902   -1.8603    1.2710 C   0  0  0  0  0  0  0  0  0  0  0  0
   -0.4787   -0.6419    0.5434 N   0  0  0  0  0  0  0  0  0  0  0  0
   -1.7298   -0.2450    0.1949 C   0  0  0  0  0  0  0  0  0  0  0  0
   -1.7386    0.9535   -0.4281 N   0  0  0  0  0  0  0  0  0  0  0  0
   -0.4502    1.3441   -0.4474 C   0  0  0  0  0  0  0  0  0  0  0  0
    0.3322    0.3704    0.1580 C   0  0  0  0  0  0  0  0  0  0  0  0
    1.7787    0.4553    0.4510 C   0  0  0  0  0  0  0  0  0  0  0  0
    2.3252    1.6061    1.0320 C   0  0  0  0  0  0  0  0  0  0  0  0
    3.6940    1.6368    1.2912 C   0  0  0  0  0  0  0  0  0  0  0  0
    4.4660    0.5625    0.9864 N   0  0  0  0  0  0  0  0  0  0  0  0
    3.9239   -0.5535    0.4274 C   0  0  0  0  0  0  0  0  0  0  0  0
    4.7457   -1.6814    0.1106 N   0  0  0  0  0  0  0  0  0  0  0  0
    6.1726   -1.7025    0.4185 C   0  0  0  0  0  0  0  0  0  0  0  0
    7.0086   -0.8951   -0.5600 C   0  0  0  0  0  0  0  0  0  0  0  0
    7.0177   -2.4144   -0.6237 C   0  0  0  0  0  0  0  0  0  0  0  0
    2.5906   -0.5969    0.1659 N   0  0  0  0  0  0  0  0  0  0  0  0
   -0.0088    2.6082   -1.0757 C   0  0  0  0  0  0  0  0  0  0  0  0
    1.1941    2.6802   -1.7981 C   0  0  0  0  0  0  0  0  0  0  0  0
    1.5883    3.8803   -2.3946 C   0  0  0  0  0  0  0  0  0  0  0  0
    0.7825    5.0187   -2.2910 C   0  0  0  0  0  0  0  0  0  0  0  0
    1.3128    6.5105   -3.0558 Cl  0  0  0  0  0  0  0  0  0  0  0  0
   -0.4329    4.9506   -1.5900 C   0  0  0  0  0  0  0  0  0  0  0  0
   -1.4812    6.3549   -1.4449 Cl  0  0  0  0  0  0  0  0  0  0  0  0
   -0.8258    3.7471   -0.9925 C   0  0  0  0  0  0  0  0  0  0  0  0
   -2.9864   -1.0713    0.3720 C   0  0  0  0  0  0  0  0  0  0  0  0
   -4.2319   -0.1823    0.6196 C   0  0  0  0  0  0  0  0  0  0  0  0
   -5.0199    0.0445   -0.6758 C   0  0  0  0  0  0  0  0  0  0  0  0
   -5.5345   -1.2302   -1.2334 N   0  0  0  0  0  0  0  0  0  0  0  0
   -5.8673   -1.0664   -2.6570 C   0  0  0  0  0  0  0  0  0  0  0  0
   -4.6431   -2.4005   -1.0171 C   0  0  0  0  0  0  0  0  0  0  0  0
   -3.1708   -2.0013   -0.8476 C   0  0  0  0  0  0  0  0  0  0  0  0
   -1.8149   -1.8944    3.4789 H   0  0  0  0  0  0  0  0  0  0  0  0
   -0.7615   -0.9287    4.5759 H   0  0  0  0  0  0  0  0  0  0  0  0
   -1.4292   -0.1649    3.0885 H   0  0  0  0  0  0  0  0  0  0  0  0
    0.9959   -0.7840    2.8281 H   0  0  0  0  0  0  0  0  0  0  0  0
    0.6019   -2.4879    3.2233 H   0  0  0  0  0  0  0  0  0  0  0  0
   -0.8711   -2.6433    1.1922 H   0  0  0  0  0  0  0  0  0  0  0  0
    0.8122   -2.3012    0.8005 H   0  0  0  0  0  0  0  0  0  0  0  0
    1.7051    2.4569    1.2854 H   0  0  0  0  0  0  0  0  0  0  0  0
    4.1431    2.5135    1.7382 H   0  0  0  0  0  0  0  0  0  0  0  0
    4.2940   -2.5471   -0.2620 H   0  0  0  0  0  0  0  0  0  0  0  0
    6.5023   -1.7141    1.4789 H   0  0  0  0  0  0  0  0  0  0  0  0
    7.9291   -0.4550   -0.1219 H   0  0  0  0  0  0  0  0  0  0  0  0
    6.4465   -0.4105   -1.3873 H   0  0  0  0  0  0  0  0  0  0  0  0
    7.9438   -2.8778   -0.2232 H   0  0  0  0  0  0  0  0  0  0  0  0
    6.4648   -2.8325   -1.4921 H   0  0  0  0  0  0  0  0  0  0  0  0
    1.8210    1.8065   -1.9185 H   0  0  0  0  0  0  0  0  0  0  0  0
    2.5198    3.9221   -2.9447 H   0  0  0  0  0  0  0  0  0  0  0  0
   -1.7635    3.7043   -0.4513 H   0  0  0  0  0  0  0  0  0  0  0  0
   -2.8785   -1.7019    1.2779 H   0  0  0  0  0  0  0  0  0  0  0  0
   -4.9039   -0.6855    1.3500 H   0  0  0  0  0  0  0  0  0  0  0  0
   -3.9498    0.7951    1.0693 H   0  0  0  0  0  0  0  0  0  0  0  0
   -4.3619    0.5692   -1.4062 H   0  0  0  0  0  0  0  0  0  0  0  0
   -5.8797    0.7134   -0.4561 H   0  0  0  0  0  0  0  0  0  0  0  0
   -4.9479   -0.9223   -3.2667 H   0  0  0  0  0  0  0  0  0  0  0  0
   -6.4124   -1.9618   -3.0253 H   0  0  0  0  0  0  0  0  0  0  0  0
   -6.5389   -0.1918   -2.7983 H   0  0  0  0  0  0  0  0  0  0  0  0
   -4.7250   -3.1412   -1.8445 H   0  0  0  0  0  0  0  0  0  0  0  0
   -4.9762   -2.9300   -0.0983 H   0  0  0  0  0  0  0  0  0  0  0  0
   -2.8359   -1.4983   -1.7824 H   0  0  0  0  0  0  0  0  0  0  0  0
   -2.5512   -2.9149   -0.7176 H   0  0  0  0  0  0  0  0  0  0  0  0
  1  2  1  0
  2  3  1  0
  3  4  1  0
  4  5  1  0
  5  6  2  0
  6  7  1  0
  7  8  2  0
  8  9  1  0
  9 10  2  0
 10 11  1  0
 11 12  2  0
 12 13  1  0
 13 14  1  0
 14 15  1  0
 15 16  1  0
 16 17  1  0
 13 18  2  0
  7 19  1  0
 19 20  2  0
 20 21  1  0
 21 22  2  0
 22 23  1  0
 22 24  1  0
 24 25  1  0
 24 26  2  0
  5 27  1  0
 27 28  1  0
 28 29  1  0
 29 30  1  0
 30 31  1  0
 30 32  1  0
 32 33  1  0
  8  4  1  0
 18  9  1  0
 26 19  1  0
 33 27  1  0
 17 15  1  0
  1 34  1  0
  1 35  1  0
  1 36  1  0
  2 37  1  0
  2 38  1  0
  3 39  1  0
  3 40  1  0
 10 41  1  0
 11 42  1  0
 14 43  1  0
 15 44  1  0
 16 45  1  0
 16 46  1  0
 17 47  1  0
 17 48  1  0
 20 49  1  0
 21 50  1  0
 26 51  1  0
 27 52  1  0
 28 53  1  0
 28 54  1  0
 29 55  1  0
 29 56  1  0
 31 57  1  0
 31 58  1  0
 31 59  1  0
 32 60  1  0
 32 61  1  0
 33 62  1  0
 33 63  1  0
M  END
$$$$
