
     RDKit          3D

 40 44  0  0  0  0  0  0  0  0999 V2000
   -6.5980   -0.9285    1.9005 C   0  0  0  0  0  0  0  0  0  0  0  0
   -5.4396   -0.4981    1.0587 C   0  0  0  0  0  0  0  0  0  0  0  0
   -5.6007    0.5092    0.1489 N   0  0  0  0  0  0  0  0  0  0  0  0
   -4.5460    0.8724   -0.6197 C   0  0  0  0  0  0  0  0  0  0  0  0
   -4.5649    1.8078   -1.5835 N   0  0  0  0  0  0  0  0  0  0  0  0
   -3.2921    1.7198   -2.0538 C   0  0  0  0  0  0  0  0  0  0  0  0
   -2.5502    0.7816   -1.4162 N   0  0  0  0  0  0  0  0  0  0  0  0
   -3.3614    0.2712   -0.5111 N   0  0  0  0  0  0  0  0  0  0  0  0
   -3.1228   -0.7333    0.3735 C   0  0  0  0  0  0  0  0  0  0  0  0
   -1.8474   -1.3885    0.4544 N   0  0  0  0  0  0  0  0  0  0  0  0
   -0.5861   -0.7034    0.3783 C   0  0  0  0  0  0  0  0  0  0  0  0
    0.5486   -1.3981   -0.0648 C   0  0  0  0  0  0  0  0  0  0  0  0
    1.7969   -0.7595   -0.1285 C   0  0  0  0  0  0  0  0  0  0  0  0
    2.9281   -1.4517   -0.5864 C   0  0  0  0  0  0  0  0  0  0  0  0
    4.1735   -0.8095   -0.6496 C   0  0  0  0  0  0  0  0  0  0  0  0
    5.3085   -1.4973   -1.1079 C   0  0  0  0  0  0  0  0  0  0  0  0
    6.5456   -0.8496   -1.1676 C   0  0  0  0  0  0  0  0  0  0  0  0
    6.6603    0.4854   -0.7718 C   0  0  0  0  0  0  0  0  0  0  0  0
    5.5386    1.1820   -0.3135 C   0  0  0  0  0  0  0  0  0  0  0  0
    4.2897    0.5437   -0.2484 C   0  0  0  0  0  0  0  0  0  0  0  0
    3.1589    1.2350    0.2105 C   0  0  0  0  0  0  0  0  0  0  0  0
    1.9135    0.5923    0.2728 C   0  0  0  0  0  0  0  0  0  0  0  0
    0.7812    1.2775    0.7361 C   0  0  0  0  0  0  0  0  0  0  0  0
   -0.4566    0.6328    0.7955 C   0  0  0  0  0  0  0  0  0  0  0  0
   -4.1940   -1.1556    1.1773 C   0  0  0  0  0  0  0  0  0  0  0  0
   -6.9336   -1.9381    1.5835 H   0  0  0  0  0  0  0  0  0  0  0  0
   -6.2982   -0.9608    2.9693 H   0  0  0  0  0  0  0  0  0  0  0  0
   -7.4443   -0.2176    1.7914 H   0  0  0  0  0  0  0  0  0  0  0  0
   -2.9122    2.3308   -2.8613 H   0  0  0  0  0  0  0  0  0  0  0  0
   -1.8391   -2.4193    0.6285 H   0  0  0  0  0  0  0  0  0  0  0  0
    0.4518   -2.4340   -0.3691 H   0  0  0  0  0  0  0  0  0  0  0  0
    2.8393   -2.4882   -0.8939 H   0  0  0  0  0  0  0  0  0  0  0  0
    5.2391   -2.5329   -1.4191 H   0  0  0  0  0  0  0  0  0  0  0  0
    7.4179   -1.3839   -1.5216 H   0  0  0  0  0  0  0  0  0  0  0  0
    7.6210    0.9816   -0.8202 H   0  0  0  0  0  0  0  0  0  0  0  0
    5.6469    2.2167   -0.0108 H   0  0  0  0  0  0  0  0  0  0  0  0
    3.2479    2.2712    0.5190 H   0  0  0  0  0  0  0  0  0  0  0  0
    0.8538    2.3096    1.0580 H   0  0  0  0  0  0  0  0  0  0  0  0
   -1.3116    1.1755    1.1777 H   0  0  0  0  0  0  0  0  0  0  0  0
   -4.0621   -1.9656    1.8845 H   0  0  0  0  0  0  0  0  0  0  0  0
  1  2  1  0
  2  3  2  0
  3  4  1  0
  4  5  2  0
  5  6  1  0
  6  7  2  0
  7  8  1  0
  8  9  1  0
  9 10  1  0
 10 11  1  0
 11 12  2  0
 12 13  1  0
 13 14  2  0
 14 15  1  0
 15 16  2  0
 16 17  1  0
 17 18  2  0
 18 19  1  0
 19 20  2  0
 20 21  1  0
 21 22  2  0
 22 23  1  0
 23 24  2  0
  9 25  2  0
 25  2  1  0
  8  4  1  0
 24 11  1  0
 22 13  1  0
 20 15  1  0
  1 26  1  0
  1 27  1  0
  1 28  1  0
  6 29  1  0
 10 30  1  0
 12 31  1  0
 14 32  1  0
 16 33  1  0
 17 34  1  0
 18 35  1  0
 19 36  1  0
 21 37  1  0
 23 38  1  0
 24 39  1  0
 25 40  1  0
M  END
$$$$
