
     RDKit          3D

 48 51  0  0  0  0  0  0  0  0999 V2000
    3.5041    0.3807    2.1059 C   0  0  1  0  0  0  0  0  0  0  0  0
    3.9840    1.7271    2.6781 C   0  0  0  0  0  0  0  0  0  0  0  0
    4.1817    2.6762    1.6622 O   0  0  0  0  0  0  0  0  0  0  0  0
    2.1661    0.4984    1.5115 N   0  0  0  0  0  0  0  0  0  0  0  0
    1.4110   -0.6581    1.1134 C   0  0  0  0  0  0  0  0  0  0  0  0
    1.8484   -1.8119    1.3735 O   0  0  0  0  0  0  0  0  0  0  0  0
    0.1245   -0.5245    0.4017 C   0  0  0  0  0  0  0  0  0  0  0  0
   -0.4381    0.6506   -0.0692 C   0  0  0  0  0  0  0  0  0  0  0  0
   -1.6263    0.2892   -0.6755 C   0  0  0  0  0  0  0  0  0  0  0  0
   -1.7281   -1.0862   -0.5742 C   0  0  0  0  0  0  0  0  0  0  0  0
   -0.6635   -1.5726    0.0876 N   0  0  0  0  0  0  0  0  0  0  0  0
   -2.5416    1.2042   -1.3806 C   0  0  0  0  0  0  0  0  0  0  0  0
   -2.1309    2.3664   -1.9268 N   0  0  0  0  0  0  0  0  0  0  0  0
   -3.1631    2.9090   -2.5519 N   0  0  0  0  0  0  0  0  0  0  0  0
   -4.2419    2.1180   -2.4227 C   0  0  0  0  0  0  0  0  0  0  0  0
   -3.8901    1.0158   -1.6694 C   0  0  0  0  0  0  0  0  0  0  0  0
   -4.8114   -0.0385   -1.1988 C   0  0  0  0  0  0  0  0  0  0  0  0
   -5.7716   -0.5743   -2.0726 C   0  0  0  0  0  0  0  0  0  0  0  0
   -6.6585   -1.5591   -1.6274 C   0  0  0  0  0  0  0  0  0  0  0  0
   -6.6025   -2.0072   -0.3051 C   0  0  0  0  0  0  0  0  0  0  0  0
   -5.6636   -1.4649    0.5780 C   0  0  0  0  0  0  0  0  0  0  0  0
   -5.6022   -2.0172    2.2417 Cl  0  0  0  0  0  0  0  0  0  0  0  0
   -4.7762   -0.4776    0.1359 C   0  0  0  0  0  0  0  0  0  0  0  0
    4.5003   -0.1618    1.0992 C   0  0  0  0  0  0  0  0  0  0  0  0
    5.4832   -1.0787    1.5105 C   0  0  0  0  0  0  0  0  0  0  0  0
    6.4229   -1.5693    0.5967 C   0  0  0  0  0  0  0  0  0  0  0  0
    7.6365   -2.7203    1.1301 Cl  0  0  0  0  0  0  0  0  0  0  0  0
    6.3939   -1.1390   -0.7353 C   0  0  0  0  0  0  0  0  0  0  0  0
    7.3011   -1.6083   -1.6280 F   0  0  0  0  0  0  0  0  0  0  0  0
    5.4296   -0.2167   -1.1496 C   0  0  0  0  0  0  0  0  0  0  0  0
    4.4905    0.2748   -0.2390 C   0  0  0  0  0  0  0  0  0  0  0  0
    3.4304   -0.3230    2.9655 H   0  0  0  0  0  0  0  0  0  0  0  0
    3.2543    2.0983    3.4351 H   0  0  0  0  0  0  0  0  0  0  0  0
    4.9494    1.5728    3.2062 H   0  0  0  0  0  0  0  0  0  0  0  0
    3.3321    3.1791    1.5627 H   0  0  0  0  0  0  0  0  0  0  0  0
    1.7349    1.4431    1.4105 H   0  0  0  0  0  0  0  0  0  0  0  0
   -0.0351    1.6518   -0.0008 H   0  0  0  0  0  0  0  0  0  0  0  0
   -2.5124   -1.7051   -0.9889 H   0  0  0  0  0  0  0  0  0  0  0  0
   -0.4807   -2.5792    0.2972 H   0  0  0  0  0  0  0  0  0  0  0  0
   -3.1284    3.8203   -3.0596 H   0  0  0  0  0  0  0  0  0  0  0  0
   -5.2229    2.3478   -2.8179 H   0  0  0  0  0  0  0  0  0  0  0  0
   -5.8257   -0.2397   -3.1013 H   0  0  0  0  0  0  0  0  0  0  0  0
   -7.3899   -1.9752   -2.3082 H   0  0  0  0  0  0  0  0  0  0  0  0
   -7.2918   -2.7704    0.0330 H   0  0  0  0  0  0  0  0  0  0  0  0
   -4.0685   -0.0482    0.8342 H   0  0  0  0  0  0  0  0  0  0  0  0
    5.5193   -1.4125    2.5404 H   0  0  0  0  0  0  0  0  0  0  0  0
    5.4107    0.1210   -2.1778 H   0  0  0  0  0  0  0  0  0  0  0  0
    3.7561    0.9947   -0.5780 H   0  0  0  0  0  0  0  0  0  0  0  0
  1  2  1  0
  2  3  1  0
  1  4  1  0
  4  5  1  0
  5  6  2  0
  5  7  1  0
  7  8  2  0
  8  9  1  0
  9 10  2  0
 10 11  1  0
  9 12  1  0
 12 13  2  0
 13 14  1  0
 14 15  1  0
 15 16  2  0
 16 17  1  0
 17 18  2  0
 18 19  1  0
 19 20  2  0
 20 21  1  0
 21 22  1  0
 21 23  2  0
  1 24  1  0
 24 25  2  0
 25 26  1  0
 26 27  1  0
 26 28  2  0
 28 29  1  0
 28 30  1  0
 30 31  2  0
 11  7  1  0
 16 12  1  0
 23 17  1  0
 31 24  1  0
  1 32  1  1
  2 33  1  0
  2 34  1  0
  3 35  1  0
  4 36  1  0
  8 37  1  0
 10 38  1  0
 11 39  1  0
 14 40  1  0
 15 41  1  0
 18 42  1  0
 19 43  1  0
 20 44  1  0
 23 45  1  0
 25 46  1  0
 30 47  1  0
 31 48  1  0
M  END
$$$$
