
     RDKit          3D

 40 42  0  0  0  0  0  0  0  0999 V2000
    0.0251   -4.8566   -1.3984 C   0  0  0  0  0  0  0  0  0  0  0  0
    0.2758   -3.4563   -1.0719 N   0  0  0  0  0  0  0  0  0  0  0  0
   -0.5384   -2.6992   -0.1514 C   0  0  0  0  0  0  0  0  0  0  0  0
   -0.0640   -1.4847    0.4111 C   0  0  0  0  0  0  0  0  0  0  0  0
   -0.9147   -0.7237    1.2314 C   0  0  0  0  0  0  0  0  0  0  0  0
   -2.2145   -1.1533    1.5058 C   0  0  0  0  0  0  0  0  0  0  0  0
   -3.2843   -0.1657    2.5512 S   0  0  0  0  0  0  0  0  0  0  0  0
   -4.0019    0.6998    1.1539 C   0  0  0  0  0  0  0  0  0  0  0  0
   -5.0821    0.2594    0.4830 N   0  0  0  0  0  0  0  0  0  0  0  0
   -5.3075    1.1284   -0.4928 N   0  0  0  0  0  0  0  0  0  0  0  0
   -4.3630    2.0851   -0.4010 C   0  0  0  0  0  0  0  0  0  0  0  0
   -3.5380    1.8510    0.6339 N   0  0  0  0  0  0  0  0  0  0  0  0
   -2.3437    2.6046    0.9973 C   0  0  0  0  0  0  0  0  0  0  0  0
   -2.6731   -2.3605    0.9789 C   0  0  0  0  0  0  0  0  0  0  0  0
   -1.8459   -3.1267    0.1569 C   0  0  0  0  0  0  0  0  0  0  0  0
    1.3229   -1.0093    0.2069 C   0  0  0  0  0  0  0  0  0  0  0  0
    2.2766   -1.8300    0.2810 O   0  0  0  0  0  0  0  0  0  0  0  0
    1.5740    0.3821   -0.0557 N   0  0  0  0  0  0  0  0  0  0  0  0
    2.8712    0.9964   -0.0647 C   0  0  0  0  0  0  0  0  0  0  0  0
    3.0577    2.2849   -0.4234 N   0  0  0  0  0  0  0  0  0  0  0  0
    4.3635    2.6547   -0.3237 C   0  0  0  0  0  0  0  0  0  0  0  0
    4.8267    4.0216   -0.7068 C   0  0  0  0  0  0  0  0  0  0  0  0
    5.2328    1.6558    0.1071 C   0  0  0  0  0  0  0  0  0  0  0  0
    4.3232    0.2701    0.3900 S   0  0  0  0  0  0  0  0  0  0  0  0
    0.8523   -5.2510   -2.0257 H   0  0  0  0  0  0  0  0  0  0  0  0
   -0.9215   -4.9502   -1.9703 H   0  0  0  0  0  0  0  0  0  0  0  0
   -0.0322   -5.4580   -0.4667 H   0  0  0  0  0  0  0  0  0  0  0  0
    1.0914   -3.0026   -1.5397 H   0  0  0  0  0  0  0  0  0  0  0  0
   -0.5586    0.1949    1.6815 H   0  0  0  0  0  0  0  0  0  0  0  0
   -4.2769    2.9235   -1.0800 H   0  0  0  0  0  0  0  0  0  0  0  0
   -1.4750    2.2239    0.4217 H   0  0  0  0  0  0  0  0  0  0  0  0
   -2.1395    2.5047    2.0839 H   0  0  0  0  0  0  0  0  0  0  0  0
   -2.4886    3.6808    0.7645 H   0  0  0  0  0  0  0  0  0  0  0  0
   -3.6779   -2.7013    1.1946 H   0  0  0  0  0  0  0  0  0  0  0  0
   -2.2443   -4.0440   -0.2535 H   0  0  0  0  0  0  0  0  0  0  0  0
    0.7577    0.9958   -0.2763 H   0  0  0  0  0  0  0  0  0  0  0  0
    5.5753    4.3895    0.0262 H   0  0  0  0  0  0  0  0  0  0  0  0
    5.2879    3.9871   -1.7157 H   0  0  0  0  0  0  0  0  0  0  0  0
    3.9688    4.7265   -0.7238 H   0  0  0  0  0  0  0  0  0  0  0  0
    6.3026    1.7525    0.2369 H   0  0  0  0  0  0  0  0  0  0  0  0
  1  2  1  0
  2  3  1  0
  3  4  2  0
  4  5  1  0
  5  6  2  0
  6  7  1  0
  7  8  1  0
  8  9  2  0
  9 10  1  0
 10 11  2  0
 11 12  1  0
 12 13  1  0
  6 14  1  0
 14 15  2  0
  4 16  1  0
 16 17  2  0
 16 18  1  0
 18 19  1  0
 19 20  2  0
 20 21  1  0
 21 22  1  0
 21 23  2  0
 23 24  1  0
 15  3  1  0
 24 19  1  0
 12  8  1  0
  1 25  1  0
  1 26  1  0
  1 27  1  0
  2 28  1  0
  5 29  1  0
 11 30  1  0
 13 31  1  0
 13 32  1  0
 13 33  1  0
 14 34  1  0
 15 35  1  0
 18 36  1  0
 22 37  1  0
 22 38  1  0
 22 39  1  0
 23 40  1  0
M  END
$$$$
