
     RDKit          3D

 53 52  0  0  0  0  0  0  0  0999 V2000
    0.5712   -0.6642   -0.0560 C   0  0  1  0  0  0  0  0  0  0  0  0
    0.1229   -0.3563   -1.3513 O   0  0  0  0  0  0  0  0  0  0  0  0
    2.0056   -0.1383    0.1618 C   0  0  0  0  0  0  0  0  0  0  0  0
    2.1647    1.3533   -0.1901 C   0  0  0  0  0  0  0  0  0  0  0  0
    3.5756    1.8936    0.1373 C   0  0  0  0  0  0  0  0  0  0  0  0
    4.4436    2.1458   -1.1085 C   0  0  0  0  0  0  0  0  0  0  0  0
    4.9638    0.8695   -1.7940 C   0  0  0  0  0  0  0  0  0  0  0  0
    6.1034    0.1700   -1.0190 C   0  0  0  0  0  0  0  0  0  0  0  0
    5.6417   -1.1112   -0.3140 C   0  0  0  0  0  0  0  0  0  0  0  0
    6.8002   -1.7930    0.3424 C   0  0  0  0  0  0  0  0  0  0  0  0
    7.1745   -1.4335    1.6333 O   0  0  0  0  0  0  0  0  0  0  0  0
    7.4606   -2.6628   -0.2861 O   0  0  0  0  0  0  0  0  0  0  0  0
   -0.3926   -0.1049    0.9582 C   0  0  0  0  0  0  0  0  0  0  0  0
   -1.6740   -0.4812    0.9687 C   0  0  0  0  0  0  0  0  0  0  0  0
   -2.6130    0.0600    1.9723 C   0  0  0  0  0  0  0  0  0  0  0  0
   -3.9185   -0.2400    2.0193 C   0  0  0  0  0  0  0  0  0  0  0  0
   -4.6272   -1.1512    1.0502 C   0  0  0  0  0  0  0  0  0  0  0  0
   -4.8828   -0.4708   -0.3066 C   0  0  0  0  0  0  0  0  0  0  0  0
   -5.9390    0.6548   -0.2309 C   0  0  0  0  0  0  0  0  0  0  0  0
   -7.3229    0.2356   -0.7541 C   0  0  0  0  0  0  0  0  0  0  0  0
   -8.0022   -0.8100    0.1276 C   0  0  0  0  0  0  0  0  0  0  0  0
    0.5881   -1.7713    0.0781 H   0  0  0  0  0  0  0  0  0  0  0  0
    0.6172   -0.9514   -1.9738 H   0  0  0  0  0  0  0  0  0  0  0  0
    2.6873   -0.7383   -0.4737 H   0  0  0  0  0  0  0  0  0  0  0  0
    2.2996   -0.3105    1.2209 H   0  0  0  0  0  0  0  0  0  0  0  0
    1.9215    1.5130   -1.2629 H   0  0  0  0  0  0  0  0  0  0  0  0
    1.4252    1.9406    0.3953 H   0  0  0  0  0  0  0  0  0  0  0  0
    4.1110    1.2480    0.8632 H   0  0  0  0  0  0  0  0  0  0  0  0
    3.4519    2.8746    0.6467 H   0  0  0  0  0  0  0  0  0  0  0  0
    5.3086    2.7832   -0.8219 H   0  0  0  0  0  0  0  0  0  0  0  0
    3.8566    2.7364   -1.8456 H   0  0  0  0  0  0  0  0  0  0  0  0
    4.1279    0.1756   -2.0197 H   0  0  0  0  0  0  0  0  0  0  0  0
    5.3696    1.1788   -2.7823 H   0  0  0  0  0  0  0  0  0  0  0  0
    6.5624    0.8597   -0.2766 H   0  0  0  0  0  0  0  0  0  0  0  0
    6.9025   -0.1029   -1.7442 H   0  0  0  0  0  0  0  0  0  0  0  0
    5.1770   -1.8034   -1.0499 H   0  0  0  0  0  0  0  0  0  0  0  0
    4.8889   -0.8744    0.4633 H   0  0  0  0  0  0  0  0  0  0  0  0
    7.9663   -1.8739    2.0862 H   0  0  0  0  0  0  0  0  0  0  0  0
   -0.0372    0.5965    1.7048 H   0  0  0  0  0  0  0  0  0  0  0  0
   -2.0147   -1.1941    0.2290 H   0  0  0  0  0  0  0  0  0  0  0  0
   -2.2265    0.7344    2.7280 H   0  0  0  0  0  0  0  0  0  0  0  0
   -4.5085    0.1877    2.8212 H   0  0  0  0  0  0  0  0  0  0  0  0
   -4.0400   -2.0828    0.9056 H   0  0  0  0  0  0  0  0  0  0  0  0
   -5.5938   -1.4590    1.4995 H   0  0  0  0  0  0  0  0  0  0  0  0
   -3.9308   -0.0442   -0.6890 H   0  0  0  0  0  0  0  0  0  0  0  0
   -5.1913   -1.2438   -1.0436 H   0  0  0  0  0  0  0  0  0  0  0  0
   -5.5894    1.4994   -0.8641 H   0  0  0  0  0  0  0  0  0  0  0  0
   -6.0335    1.0568    0.8013 H   0  0  0  0  0  0  0  0  0  0  0  0
   -7.9718    1.1375   -0.7887 H   0  0  0  0  0  0  0  0  0  0  0  0
   -7.2361   -0.1533   -1.7919 H   0  0  0  0  0  0  0  0  0  0  0  0
   -9.0453   -0.9645   -0.2201 H   0  0  0  0  0  0  0  0  0  0  0  0
   -7.4696   -1.7812    0.0595 H   0  0  0  0  0  0  0  0  0  0  0  0
   -8.0284   -0.4702    1.1849 H   0  0  0  0  0  0  0  0  0  0  0  0
  1  2  1  0
  1  3  1  0
  3  4  1  0
  4  5  1  0
  5  6  1  0
  6  7  1  0
  7  8  1  0
  8  9  1  0
  9 10  1  0
 10 11  1  0
 10 12  2  0
  1 13  1  0
 13 14  2  0
 14 15  1  0
 15 16  2  0
 16 17  1  0
 17 18  1  0
 18 19  1  0
 19 20  1  0
 20 21  1  0
  1 22  1  6
  2 23  1  0
  3 24  1  0
  3 25  1  0
  4 26  1  0
  4 27  1  0
  5 28  1  0
  5 29  1  0
  6 30  1  0
  6 31  1  0
  7 32  1  0
  7 33  1  0
  8 34  1  0
  8 35  1  0
  9 36  1  0
  9 37  1  0
 11 38  1  0
 13 39  1  0
 14 40  1  0
 15 41  1  0
 16 42  1  0
 17 43  1  0
 17 44  1  0
 18 45  1  0
 18 46  1  0
 19 47  1  0
 19 48  1  0
 20 49  1  0
 20 50  1  0
 21 51  1  0
 21 52  1  0
 21 53  1  0
M  END
$$$$
