
     RDKit          3D

 60 64  0  0  0  0  0  0  0  0999 V2000
    2.0166   -0.1056   -1.5233 C   0  0  1  0  0  0  0  0  0  0  0  0
    1.2050   -0.2942   -2.6300 F   0  0  0  0  0  0  0  0  0  0  0  0
    3.2268    0.7108   -1.8671 C   0  0  0  0  0  0  0  0  0  0  0  0
    3.4264    1.5962   -0.6368 C   0  0  1  0  0  0  0  0  0  0  0  0
    2.3157    1.4613    0.2283 O   0  0  0  0  0  0  0  0  0  0  0  0
    1.3258    0.7448   -0.4703 C   0  0  2  0  0  0  0  0  0  0  0  0
    0.5061   -0.0985    0.5146 C   0  0  0  0  0  0  0  0  0  0  0  0
   -0.4257   -0.9166   -0.1828 O   0  0  0  0  0  0  0  0  0  0  0  0
   -1.7989   -0.5664    0.0160 C   0  0  0  0  0  0  0  0  0  0  0  0
   -2.0144    0.8640   -0.5361 C   0  0  0  0  0  0  0  0  0  0  0  0
   -2.0138    1.0758   -1.9333 C   0  0  0  0  0  0  0  0  0  0  0  0
   -2.1233    2.3630   -2.4653 C   0  0  0  0  0  0  0  0  0  0  0  0
   -2.2002    3.4668   -1.6168 C   0  0  0  0  0  0  0  0  0  0  0  0
   -2.1496    3.2868   -0.2348 C   0  0  0  0  0  0  0  0  0  0  0  0
   -2.0400    2.0018    0.3036 C   0  0  0  0  0  0  0  0  0  0  0  0
   -2.2315   -0.7690    1.4825 C   0  0  0  0  0  0  0  0  0  0  0  0
   -3.4356   -0.2126    1.9701 C   0  0  0  0  0  0  0  0  0  0  0  0
   -3.8665   -0.4677    3.2747 C   0  0  0  0  0  0  0  0  0  0  0  0
   -3.1291   -1.3133    4.1032 C   0  0  0  0  0  0  0  0  0  0  0  0
   -1.9698   -1.9212    3.6218 C   0  0  0  0  0  0  0  0  0  0  0  0
   -1.5339   -1.6694    2.3180 C   0  0  0  0  0  0  0  0  0  0  0  0
   -2.6507   -1.5725   -0.7744 C   0  0  0  0  0  0  0  0  0  0  0  0
   -2.1601   -2.8673   -1.0547 C   0  0  0  0  0  0  0  0  0  0  0  0
   -2.9539   -3.8032   -1.7238 C   0  0  0  0  0  0  0  0  0  0  0  0
   -4.2551   -3.4753   -2.1050 C   0  0  0  0  0  0  0  0  0  0  0  0
   -4.7706   -2.2136   -1.8086 C   0  0  0  0  0  0  0  0  0  0  0  0
   -3.9834   -1.2730   -1.1392 C   0  0  0  0  0  0  0  0  0  0  0  0
    4.6723    1.2323    0.0705 N   0  0  0  0  0  0  0  0  0  0  0  0
    4.6842    0.1443    0.9015 C   0  0  0  0  0  0  0  0  0  0  0  0
    5.8515   -0.2377    1.5563 C   0  0  0  0  0  0  0  0  0  0  0  0
    7.0102    0.4988    1.3365 C   0  0  0  0  0  0  0  0  0  0  0  0
    8.0812    0.1768    1.9168 O   0  0  0  0  0  0  0  0  0  0  0  0
    6.9849    1.5617    0.4909 N   0  0  0  0  0  0  0  0  0  0  0  0
    5.8379    1.9270   -0.1468 C   0  0  0  0  0  0  0  0  0  0  0  0
    5.8637    2.9075   -0.9409 O   0  0  0  0  0  0  0  0  0  0  0  0
    2.3313   -1.0897   -1.1092 H   0  0  0  0  0  0  0  0  0  0  0  0
    4.1040    0.0597   -2.0773 H   0  0  0  0  0  0  0  0  0  0  0  0
    3.0243    1.3444   -2.7594 H   0  0  0  0  0  0  0  0  0  0  0  0
    3.4588    2.6606   -0.9597 H   0  0  0  0  0  0  0  0  0  0  0  0
    0.6572    1.4798   -0.9695 H   0  0  0  0  0  0  0  0  0  0  0  0
    0.0470    0.5665    1.2774 H   0  0  0  0  0  0  0  0  0  0  0  0
    1.1988   -0.7658    1.0706 H   0  0  0  0  0  0  0  0  0  0  0  0
   -1.9176    0.2416   -2.6167 H   0  0  0  0  0  0  0  0  0  0  0  0
   -2.1351    2.5049   -3.5382 H   0  0  0  0  0  0  0  0  0  0  0  0
   -2.2794    4.4637   -2.0308 H   0  0  0  0  0  0  0  0  0  0  0  0
   -2.1795    4.1466    0.4220 H   0  0  0  0  0  0  0  0  0  0  0  0
   -1.9539    1.9095    1.3771 H   0  0  0  0  0  0  0  0  0  0  0  0
   -4.0466    0.4222    1.3431 H   0  0  0  0  0  0  0  0  0  0  0  0
   -4.7808   -0.0176    3.6394 H   0  0  0  0  0  0  0  0  0  0  0  0
   -3.4671   -1.5135    5.1118 H   0  0  0  0  0  0  0  0  0  0  0  0
   -1.4146   -2.6012    4.2550 H   0  0  0  0  0  0  0  0  0  0  0  0
   -0.6573   -2.1936    1.9622 H   0  0  0  0  0  0  0  0  0  0  0  0
   -1.1651   -3.1649   -0.7506 H   0  0  0  0  0  0  0  0  0  0  0  0
   -2.5610   -4.7885   -1.9396 H   0  0  0  0  0  0  0  0  0  0  0  0
   -4.8679   -4.2031   -2.6210 H   0  0  0  0  0  0  0  0  0  0  0  0
   -5.7850   -1.9648   -2.0925 H   0  0  0  0  0  0  0  0  0  0  0  0
   -4.4165   -0.3080   -0.9124 H   0  0  0  0  0  0  0  0  0  0  0  0
    3.7873   -0.4411    1.0619 H   0  0  0  0  0  0  0  0  0  0  0  0
    5.8531   -1.0949    2.2184 H   0  0  0  0  0  0  0  0  0  0  0  0
    7.8629    2.1045    0.3226 H   0  0  0  0  0  0  0  0  0  0  0  0
  1  2  1  0
  1  3  1  0
  3  4  1  0
  4  5  1  0
  5  6  1  0
  6  7  1  0
  7  8  1  0
  8  9  1  0
  9 10  1  0
 10 11  2  0
 11 12  1  0
 12 13  2  0
 13 14  1  0
 14 15  2  0
  9 16  1  0
 16 17  2  0
 17 18  1  0
 18 19  2  0
 19 20  1  0
 20 21  2  0
  9 22  1  0
 22 23  2  0
 23 24  1  0
 24 25  2  0
 25 26  1  0
 26 27  2  0
  4 28  1  0
 28 29  1  0
 29 30  2  0
 30 31  1  0
 31 32  2  0
 31 33  1  0
 33 34  1  0
 34 35  2  0
  6  1  1  0
 15 10  1  0
 21 16  1  0
 27 22  1  0
 34 28  1  0
  1 36  1  1
  3 37  1  0
  3 38  1  0
  4 39  1  6
  6 40  1  6
  7 41  1  0
  7 42  1  0
 11 43  1  0
 12 44  1  0
 13 45  1  0
 14 46  1  0
 15 47  1  0
 17 48  1  0
 18 49  1  0
 19 50  1  0
 20 51  1  0
 21 52  1  0
 23 53  1  0
 24 54  1  0
 25 55  1  0
 26 56  1  0
 27 57  1  0
 29 58  1  0
 30 59  1  0
 33 60  1  0
M  END
$$$$
