
     RDKit          3D

 40 43  0  0  0  0  0  0  0  0999 V2000
   -6.0493    2.0352    1.5410 N   0  0  0  0  0  0  0  0  0  0  0  0
   -6.1467    0.6156    1.3994 C   0  0  0  0  0  0  0  0  0  0  0  0
   -7.0874   -0.0134    2.0334 N   0  0  0  0  0  0  0  0  0  0  0  0
   -5.1768   -0.1186    0.5491 C   0  0  0  0  0  0  0  0  0  0  0  0
   -3.8271    0.3029    0.4902 C   0  0  0  0  0  0  0  0  0  0  0  0
   -2.9538   -0.4165   -0.3211 C   0  0  0  0  0  0  0  0  0  0  0  0
   -3.3584   -1.4889   -1.0538 C   0  0  0  0  0  0  0  0  0  0  0  0
   -4.6750   -1.9360   -1.0334 C   0  0  0  0  0  0  0  0  0  0  0  0
   -5.5910   -1.2416   -0.2209 C   0  0  0  0  0  0  0  0  0  0  0  0
   -2.3306   -1.9886   -1.7626 N   0  0  0  0  0  0  0  0  0  0  0  0
   -1.2973   -1.1776   -1.4091 C   0  0  0  0  0  0  0  0  0  0  0  0
   -1.6508   -0.1996   -0.5356 N   0  0  0  0  0  0  0  0  0  0  0  0
    0.0523   -1.3221   -1.9830 C   0  0  0  0  0  0  0  0  0  0  0  0
    0.1816   -1.9041   -3.0929 O   0  0  0  0  0  0  0  0  0  0  0  0
    1.2558   -0.8097   -1.3044 C   0  0  0  0  0  0  0  0  0  0  0  0
    2.4082   -0.5346   -1.9728 N   0  0  0  0  0  0  0  0  0  0  0  0
    3.2393   -0.1466   -0.9892 C   0  0  0  0  0  0  0  0  0  0  0  0
    2.6087   -0.2039    0.2149 C   0  0  0  0  0  0  0  0  0  0  0  0
    1.3514   -0.6265    0.0378 N   0  0  0  0  0  0  0  0  0  0  0  0
    3.2505    0.1233    1.4043 C   0  0  0  0  0  0  0  0  0  0  0  0
    4.5952    0.5305    1.3290 C   0  0  0  0  0  0  0  0  0  0  0  0
    5.2676    0.5952    0.0764 C   0  0  0  0  0  0  0  0  0  0  0  0
    4.5692    0.2485   -1.1053 C   0  0  0  0  0  0  0  0  0  0  0  0
    6.6856    1.0269   -0.0003 C   0  0  0  0  0  0  0  0  0  0  0  0
    7.1411    1.8074   -1.1085 N   0  0  0  0  0  0  0  0  0  0  0  0
    7.5339    0.6979    0.9241 N   0  0  0  0  0  0  0  0  0  0  0  0
   -5.3644    2.5894    0.9813 H   0  0  0  0  0  0  0  0  0  0  0  0
   -6.7046    2.5480    2.1722 H   0  0  0  0  0  0  0  0  0  0  0  0
   -7.2042   -1.0503    1.9931 H   0  0  0  0  0  0  0  0  0  0  0  0
   -3.4660    1.1446    1.0674 H   0  0  0  0  0  0  0  0  0  0  0  0
   -4.9872   -2.7852   -1.6273 H   0  0  0  0  0  0  0  0  0  0  0  0
   -6.6236   -1.5659   -0.2114 H   0  0  0  0  0  0  0  0  0  0  0  0
   -1.0655    0.5751   -0.1516 H   0  0  0  0  0  0  0  0  0  0  0  0
    0.6359   -0.8145    0.7748 H   0  0  0  0  0  0  0  0  0  0  0  0
    2.7333    0.0720    2.3537 H   0  0  0  0  0  0  0  0  0  0  0  0
    5.1028    0.8118    2.2426 H   0  0  0  0  0  0  0  0  0  0  0  0
    5.0483    0.2652   -2.0759 H   0  0  0  0  0  0  0  0  0  0  0  0
    8.1473    2.0766   -1.1854 H   0  0  0  0  0  0  0  0  0  0  0  0
    6.4753    2.1665   -1.8278 H   0  0  0  0  0  0  0  0  0  0  0  0
    7.2761    0.1120    1.7491 H   0  0  0  0  0  0  0  0  0  0  0  0
  1  2  1  0
  2  3  2  3
  2  4  1  0
  4  5  2  0
  5  6  1  0
  6  7  2  0
  7  8  1  0
  8  9  2  0
  7 10  1  0
 10 11  2  0
 11 12  1  0
 11 13  1  0
 13 14  2  0
 13 15  1  0
 15 16  2  0
 16 17  1  0
 17 18  2  0
 18 19  1  0
 18 20  1  0
 20 21  2  0
 21 22  1  0
 22 23  2  0
 22 24  1  0
 24 25  1  0
 24 26  2  3
  9  4  1  0
 19 15  1  0
 12  6  1  0
 23 17  1  0
  1 27  1  0
  1 28  1  0
  3 29  1  0
  5 30  1  0
  8 31  1  0
  9 32  1  0
 12 33  1  0
 19 34  1  0
 20 35  1  0
 21 36  1  0
 23 37  1  0
 25 38  1  0
 25 39  1  0
 26 40  1  0
M  END
$$$$
