
     RDKit          3D

 45 45  0  0  0  0  0  0  0  0999 V2000
   -0.8919   -0.4400    0.0021 C   0  0  2  0  0  0  0  0  0  0  0  0
   -0.3113   -1.8638    0.0373 C   0  0  0  0  0  0  0  0  0  0  0  0
   -1.4184   -2.9295   -0.0223 C   0  0  0  0  0  0  0  0  0  0  0  0
   -0.8581   -4.3589   -0.0789 C   0  0  0  0  0  0  0  0  0  0  0  0
   -0.2289   -4.8013    1.2420 C   0  0  0  0  0  0  0  0  0  0  0  0
   -1.5551   -0.1838   -1.2783 N   0  0  0  0  0  0  0  0  0  0  0  0
   -2.7032    0.6687   -1.3965 C   0  0  0  0  0  0  0  0  0  0  0  0
   -3.2363    1.1695   -0.3693 O   0  0  0  0  0  0  0  0  0  0  0  0
   -3.2524    1.0090   -2.7512 C   0  0  0  0  0  0  0  0  0  0  0  0
   -2.6419    2.3043   -3.2971 C   0  0  0  0  0  0  0  0  0  0  0  0
   -1.1827    2.1454   -3.5987 C   0  0  0  0  0  0  0  0  0  0  0  0
   -0.7789    1.3659   -4.6780 O   0  0  0  0  0  0  0  0  0  0  0  0
   -0.3211    2.7001   -2.8656 O   0  0  0  0  0  0  0  0  0  0  0  0
    0.4348    0.7874    0.2436 P   0  0  2  0  0  5  0  0  0  0  0  0
   -0.2362    2.3407    0.2593 O   0  0  0  0  0  0  0  0  0  0  0  0
    1.4338    0.6803   -0.8866 O   0  0  0  0  0  0  0  0  0  0  0  0
    1.2218    0.4820    1.7451 O   0  0  0  0  0  0  0  0  0  0  0  0
    2.2796    1.2432    2.2633 C   0  0  0  0  0  0  0  0  0  0  0  0
    2.8156    2.3653    1.5981 C   0  0  0  0  0  0  0  0  0  0  0  0
    3.8715    3.0837    2.1687 C   0  0  0  0  0  0  0  0  0  0  0  0
    4.4010    2.6933    3.4010 C   0  0  0  0  0  0  0  0  0  0  0  0
    3.8755    1.5831    4.0658 C   0  0  0  0  0  0  0  0  0  0  0  0
    2.8200    0.8624    3.4988 C   0  0  0  0  0  0  0  0  0  0  0  0
   -1.6137   -0.3335    0.8410 H   0  0  0  0  0  0  0  0  0  0  0  0
    0.3901   -2.0036   -0.8147 H   0  0  0  0  0  0  0  0  0  0  0  0
    0.2607   -1.9895    0.9810 H   0  0  0  0  0  0  0  0  0  0  0  0
   -2.0298   -2.7690   -0.9367 H   0  0  0  0  0  0  0  0  0  0  0  0
   -2.0932   -2.8242    0.8555 H   0  0  0  0  0  0  0  0  0  0  0  0
   -0.1091   -4.4446   -0.8960 H   0  0  0  0  0  0  0  0  0  0  0  0
   -1.6932   -5.0535   -0.3154 H   0  0  0  0  0  0  0  0  0  0  0  0
    0.6961   -4.2251    1.4503 H   0  0  0  0  0  0  0  0  0  0  0  0
    0.0422   -5.8763    1.1790 H   0  0  0  0  0  0  0  0  0  0  0  0
   -0.9463   -4.6670    2.0792 H   0  0  0  0  0  0  0  0  0  0  0  0
   -1.0912   -0.5149   -2.1549 H   0  0  0  0  0  0  0  0  0  0  0  0
   -4.3538    1.1369   -2.6726 H   0  0  0  0  0  0  0  0  0  0  0  0
   -3.0684    0.1710   -3.4585 H   0  0  0  0  0  0  0  0  0  0  0  0
   -3.1666    2.5810   -4.2364 H   0  0  0  0  0  0  0  0  0  0  0  0
   -2.7963    3.1321   -2.5701 H   0  0  0  0  0  0  0  0  0  0  0  0
    0.2040    1.2383   -4.8873 H   0  0  0  0  0  0  0  0  0  0  0  0
   -0.8006    2.3626    1.0727 H   0  0  0  0  0  0  0  0  0  0  0  0
    2.4292    2.6935    0.6444 H   0  0  0  0  0  0  0  0  0  0  0  0
    4.2796    3.9443    1.6545 H   0  0  0  0  0  0  0  0  0  0  0  0
    5.2181    3.2508    3.8404 H   0  0  0  0  0  0  0  0  0  0  0  0
    4.2857    1.2805    5.0206 H   0  0  0  0  0  0  0  0  0  0  0  0
    2.4191    0.0032    4.0215 H   0  0  0  0  0  0  0  0  0  0  0  0
  1  2  1  0
  2  3  1  0
  3  4  1  0
  4  5  1  0
  1  6  1  0
  6  7  1  0
  7  8  2  0
  7  9  1  0
  9 10  1  0
 10 11  1  0
 11 12  1  0
 11 13  2  0
  1 14  1  0
 14 15  1  1
 14 16  2  0
 14 17  1  0
 17 18  1  0
 18 19  2  0
 19 20  1  0
 20 21  2  0
 21 22  1  0
 22 23  2  0
 23 18  1  0
  1 24  1  1
  2 25  1  0
  2 26  1  0
  3 27  1  0
  3 28  1  0
  4 29  1  0
  4 30  1  0
  5 31  1  0
  5 32  1  0
  5 33  1  0
  6 34  1  0
  9 35  1  0
  9 36  1  0
 10 37  1  0
 10 38  1  0
 12 39  1  0
 15 40  1  0
 19 41  1  0
 20 42  1  0
 21 43  1  0
 22 44  1  0
 23 45  1  0
M  END
$$$$
