
     RDKit          3D

 40 42  0  0  0  0  0  0  0  0999 V2000
    5.8105   -1.6330   -0.3863 C   0  0  0  0  0  0  0  0  0  0  0  0
    4.6126   -2.2960    0.2252 C   0  0  0  0  0  0  0  0  0  0  0  0
    4.6803   -3.5271    0.4911 O   0  0  0  0  0  0  0  0  0  0  0  0
    3.3630   -1.5445    0.5210 C   0  0  0  0  0  0  0  0  0  0  0  0
    3.2470   -0.1716    0.2301 C   0  0  0  0  0  0  0  0  0  0  0  0
    2.0658    0.5196    0.5145 C   0  0  0  0  0  0  0  0  0  0  0  0
    0.9774   -0.1429    1.1066 C   0  0  0  0  0  0  0  0  0  0  0  0
   -0.2606    0.5370    1.3767 N   0  0  0  0  0  0  0  0  0  0  0  0
   -0.3675    1.9498    1.6059 C   0  0  0  0  0  0  0  0  0  0  0  0
    0.5951    2.5803    2.1211 O   0  0  0  0  0  0  0  0  0  0  0  0
   -1.6224    2.6653    1.3100 C   0  0  0  0  0  0  0  0  0  0  0  0
   -2.6575    2.3045    0.4594 C   0  0  0  0  0  0  0  0  0  0  0  0
   -3.6378    3.2197    0.5733 N   0  0  0  0  0  0  0  0  0  0  0  0
   -3.2747    4.1556    1.4357 N   0  0  0  0  0  0  0  0  0  0  0  0
   -2.0473    3.8434    1.8963 C   0  0  0  0  0  0  0  0  0  0  0  0
   -2.7145    1.1562   -0.4683 C   0  0  0  0  0  0  0  0  0  0  0  0
   -3.8394    0.3189   -0.4540 C   0  0  0  0  0  0  0  0  0  0  0  0
   -3.9148   -0.7889   -1.3054 C   0  0  0  0  0  0  0  0  0  0  0  0
   -5.3409   -1.8147   -1.2281 Cl  0  0  0  0  0  0  0  0  0  0  0  0
   -2.8584   -1.0614   -2.1948 C   0  0  0  0  0  0  0  0  0  0  0  0
   -2.8881   -2.1586   -3.0564 O   0  0  0  0  0  0  0  0  0  0  0  0
   -1.7466   -0.2138   -2.2267 C   0  0  0  0  0  0  0  0  0  0  0  0
   -1.6724    0.8998   -1.3796 C   0  0  0  0  0  0  0  0  0  0  0  0
   -0.5747    1.7573   -1.4535 O   0  0  0  0  0  0  0  0  0  0  0  0
    1.0819   -1.5133    1.3779 C   0  0  0  0  0  0  0  0  0  0  0  0
    2.2622   -2.2061    1.0958 C   0  0  0  0  0  0  0  0  0  0  0  0
    5.5458   -1.2215   -1.3827 H   0  0  0  0  0  0  0  0  0  0  0  0
    6.1673   -0.8153    0.2742 H   0  0  0  0  0  0  0  0  0  0  0  0
    6.6367   -2.3642   -0.5168 H   0  0  0  0  0  0  0  0  0  0  0  0
    4.0618    0.3747   -0.2256 H   0  0  0  0  0  0  0  0  0  0  0  0
    1.9990    1.5656    0.2468 H   0  0  0  0  0  0  0  0  0  0  0  0
   -1.1306   -0.0363    1.4581 H   0  0  0  0  0  0  0  0  0  0  0  0
   -4.5430    3.2246    0.0527 H   0  0  0  0  0  0  0  0  0  0  0  0
   -1.5079    4.4262    2.6314 H   0  0  0  0  0  0  0  0  0  0  0  0
   -4.6519    0.5167    0.2351 H   0  0  0  0  0  0  0  0  0  0  0  0
   -3.6613   -2.8110   -3.0852 H   0  0  0  0  0  0  0  0  0  0  0  0
   -0.9404   -0.4179   -2.9203 H   0  0  0  0  0  0  0  0  0  0  0  0
    0.1892    1.5890   -2.0975 H   0  0  0  0  0  0  0  0  0  0  0  0
    0.2468   -2.0459    1.8157 H   0  0  0  0  0  0  0  0  0  0  0  0
    2.3100   -3.2630    1.3266 H   0  0  0  0  0  0  0  0  0  0  0  0
  1  2  1  0
  2  3  2  0
  2  4  1  0
  4  5  2  0
  5  6  1  0
  6  7  2  0
  7  8  1  0
  8  9  1  0
  9 10  2  0
  9 11  1  0
 11 12  2  0
 12 13  1  0
 13 14  1  0
 14 15  2  0
 12 16  1  0
 16 17  2  0
 17 18  1  0
 18 19  1  0
 18 20  2  0
 20 21  1  0
 20 22  1  0
 22 23  2  0
 23 24  1  0
  7 25  1  0
 25 26  2  0
 26  4  1  0
 15 11  1  0
 23 16  1  0
  1 27  1  0
  1 28  1  0
  1 29  1  0
  5 30  1  0
  6 31  1  0
  8 32  1  0
 13 33  1  0
 15 34  1  0
 17 35  1  0
 21 36  1  0
 22 37  1  0
 24 38  1  0
 25 39  1  0
 26 40  1  0
M  END
$$$$
