
     RDKit          3D

 76 79  0  0  0  0  0  0  0  0999 V2000
    7.8225    1.4026    1.9589 C   0  0  0  0  0  0  0  0  0  0  0  0
    7.6982    1.1756    0.4357 C   0  0  0  0  0  0  0  0  0  0  0  0
    7.8152    2.5439   -0.2714 C   0  0  0  0  0  0  0  0  0  0  0  0
    8.8414    0.2588    0.0355 C   0  0  0  0  0  0  0  0  0  0  0  0
    8.7624   -1.1030    0.3175 O   0  0  0  0  0  0  0  0  0  0  0  0
    9.8862    0.7191   -0.5013 O   0  0  0  0  0  0  0  0  0  0  0  0
    6.3611    0.5346    0.0247 C   0  0  0  0  0  0  0  0  0  0  0  0
    5.2427    0.4830    0.8861 C   0  0  0  0  0  0  0  0  0  0  0  0
    4.0346   -0.0757    0.4601 C   0  0  0  0  0  0  0  0  0  0  0  0
    3.9011   -0.5908   -0.8383 C   0  0  0  0  0  0  0  0  0  0  0  0
    4.9963   -0.5133   -1.7128 C   0  0  0  0  0  0  0  0  0  0  0  0
    6.2045    0.0443   -1.2893 C   0  0  0  0  0  0  0  0  0  0  0  0
    2.5773   -1.1745   -1.2923 C   0  0  0  0  0  0  0  0  0  0  0  0
    2.7543   -2.4803   -1.7868 O   0  0  0  0  0  0  0  0  0  0  0  0
    1.8918   -0.2510   -2.3252 C   0  0  0  0  0  0  0  0  0  0  0  0
    0.5318   -0.7803   -2.8190 C   0  0  0  0  0  0  0  0  0  0  0  0
   -0.5357   -0.8874   -1.7179 C   0  0  0  0  0  0  0  0  0  0  0  0
   -0.6658    0.3883   -0.9757 N   0  0  0  0  0  0  0  0  0  0  0  0
   -0.9728    0.1980    0.4573 C   0  0  0  0  0  0  0  0  0  0  0  0
   -2.4270   -0.2364    0.6782 C   0  0  0  0  0  0  0  0  0  0  0  0
   -3.3884    0.8285    0.1032 C   0  0  0  0  0  0  0  0  0  0  0  0
   -3.0743    1.0066   -1.3988 C   0  0  0  0  0  0  0  0  0  0  0  0
   -1.5882    1.3528   -1.6178 C   0  0  0  0  0  0  0  0  0  0  0  0
   -4.9181    0.5405    0.3771 C   0  0  0  0  0  0  0  0  0  0  0  0
   -5.6790    1.5392   -0.2676 O   0  0  0  0  0  0  0  0  0  0  0  0
   -5.3001   -0.8240   -0.2274 C   0  0  0  0  0  0  0  0  0  0  0  0
   -5.0935   -2.0226    0.4923 C   0  0  0  0  0  0  0  0  0  0  0  0
   -5.4196   -3.2598   -0.0691 C   0  0  0  0  0  0  0  0  0  0  0  0
   -5.9502   -3.3266   -1.3575 C   0  0  0  0  0  0  0  0  0  0  0  0
   -6.1530   -2.1561   -2.0890 C   0  0  0  0  0  0  0  0  0  0  0  0
   -5.8297   -0.9149   -1.5335 C   0  0  0  0  0  0  0  0  0  0  0  0
   -5.3273    0.5882    1.8684 C   0  0  0  0  0  0  0  0  0  0  0  0
   -4.5150    1.1484    2.8835 C   0  0  0  0  0  0  0  0  0  0  0  0
   -4.9655    1.2147    4.2056 C   0  0  0  0  0  0  0  0  0  0  0  0
   -6.2400    0.7586    4.5387 C   0  0  0  0  0  0  0  0  0  0  0  0
   -7.0759    0.2481    3.5474 C   0  0  0  0  0  0  0  0  0  0  0  0
   -6.6326    0.1780    2.2245 C   0  0  0  0  0  0  0  0  0  0  0  0
    8.8412    1.7664    2.2173 H   0  0  0  0  0  0  0  0  0  0  0  0
    7.6456    0.4557    2.5139 H   0  0  0  0  0  0  0  0  0  0  0  0
    7.1017    2.1715    2.3111 H   0  0  0  0  0  0  0  0  0  0  0  0
    6.9527    3.1927   -0.0047 H   0  0  0  0  0  0  0  0  0  0  0  0
    8.7480    3.0685    0.0298 H   0  0  0  0  0  0  0  0  0  0  0  0
    7.8284    2.4205   -1.3758 H   0  0  0  0  0  0  0  0  0  0  0  0
    9.5212   -1.7290    0.0758 H   0  0  0  0  0  0  0  0  0  0  0  0
    5.2820    0.8718    1.8926 H   0  0  0  0  0  0  0  0  0  0  0  0
    3.1985   -0.0994    1.1483 H   0  0  0  0  0  0  0  0  0  0  0  0
    4.9178   -0.8740   -2.7300 H   0  0  0  0  0  0  0  0  0  0  0  0
    7.0238    0.0968   -1.9954 H   0  0  0  0  0  0  0  0  0  0  0  0
    1.9101   -1.2515   -0.4084 H   0  0  0  0  0  0  0  0  0  0  0  0
    3.1731   -2.4187   -2.6842 H   0  0  0  0  0  0  0  0  0  0  0  0
    1.7590    0.7614   -1.8851 H   0  0  0  0  0  0  0  0  0  0  0  0
    2.5537   -0.1315   -3.2105 H   0  0  0  0  0  0  0  0  0  0  0  0
    0.6687   -1.7788   -3.2875 H   0  0  0  0  0  0  0  0  0  0  0  0
    0.1619   -0.1028   -3.6176 H   0  0  0  0  0  0  0  0  0  0  0  0
   -1.4975   -1.1906   -2.1815 H   0  0  0  0  0  0  0  0  0  0  0  0
   -0.2523   -1.7237   -1.0423 H   0  0  0  0  0  0  0  0  0  0  0  0
   -0.7860    1.1508    0.9998 H   0  0  0  0  0  0  0  0  0  0  0  0
   -0.2852   -0.5512    0.9072 H   0  0  0  0  0  0  0  0  0  0  0  0
   -2.5940   -0.3873    1.7633 H   0  0  0  0  0  0  0  0  0  0  0  0
   -2.5798   -1.2144    0.1766 H   0  0  0  0  0  0  0  0  0  0  0  0
   -3.1433    1.8084    0.5678 H   0  0  0  0  0  0  0  0  0  0  0  0
   -3.3285    0.0878   -1.9639 H   0  0  0  0  0  0  0  0  0  0  0  0
   -3.6862    1.8331   -1.8196 H   0  0  0  0  0  0  0  0  0  0  0  0
   -1.3899    2.3656   -1.2038 H   0  0  0  0  0  0  0  0  0  0  0  0
   -1.3858    1.4183   -2.7080 H   0  0  0  0  0  0  0  0  0  0  0  0
   -5.4236    2.4190    0.1180 H   0  0  0  0  0  0  0  0  0  0  0  0
   -4.6741   -2.0020    1.4900 H   0  0  0  0  0  0  0  0  0  0  0  0
   -5.2569   -4.1688    0.4954 H   0  0  0  0  0  0  0  0  0  0  0  0
   -6.2003   -4.2863   -1.7910 H   0  0  0  0  0  0  0  0  0  0  0  0
   -6.5578   -2.2100   -3.0914 H   0  0  0  0  0  0  0  0  0  0  0  0
   -5.9849   -0.0279   -2.1339 H   0  0  0  0  0  0  0  0  0  0  0  0
   -3.5323    1.5433    2.6826 H   0  0  0  0  0  0  0  0  0  0  0  0
   -4.3260    1.6315    4.9732 H   0  0  0  0  0  0  0  0  0  0  0  0
   -6.5855    0.8152    5.5629 H   0  0  0  0  0  0  0  0  0  0  0  0
   -8.0734   -0.0861    3.8016 H   0  0  0  0  0  0  0  0  0  0  0  0
   -7.3140   -0.1993    1.4722 H   0  0  0  0  0  0  0  0  0  0  0  0
  1  2  1  0
  2  3  1  0
  2  4  1  0
  4  5  1  0
  4  6  2  0
  2  7  1  0
  7  8  2  0
  8  9  1  0
  9 10  2  0
 10 11  1  0
 11 12  2  0
 10 13  1  0
 13 14  1  0
 13 15  1  0
 15 16  1  0
 16 17  1  0
 17 18  1  0
 18 19  1  0
 19 20  1  0
 20 21  1  0
 21 22  1  0
 22 23  1  0
 21 24  1  0
 24 25  1  0
 24 26  1  0
 26 27  2  0
 27 28  1  0
 28 29  2  0
 29 30  1  0
 30 31  2  0
 24 32  1  0
 32 33  2  0
 33 34  1  0
 34 35  2  0
 35 36  1  0
 36 37  2  0
 12  7  1  0
 23 18  1  0
 31 26  1  0
 37 32  1  0
  1 38  1  0
  1 39  1  0
  1 40  1  0
  3 41  1  0
  3 42  1  0
  3 43  1  0
  5 44  1  0
  8 45  1  0
  9 46  1  0
 11 47  1  0
 12 48  1  0
 13 49  1  0
 14 50  1  0
 15 51  1  0
 15 52  1  0
 16 53  1  0
 16 54  1  0
 17 55  1  0
 17 56  1  0
 19 57  1  0
 19 58  1  0
 20 59  1  0
 20 60  1  0
 21 61  1  0
 22 62  1  0
 22 63  1  0
 23 64  1  0
 23 65  1  0
 25 66  1  0
 27 67  1  0
 28 68  1  0
 29 69  1  0
 30 70  1  0
 31 71  1  0
 33 72  1  0
 34 73  1  0
 35 74  1  0
 36 75  1  0
 37 76  1  0
M  END
$$$$
