
     RDKit          3D

 55 58  0  0  0  0  0  0  0  0999 V2000
   -3.3385   -0.3921    0.4091 C   0  0  1  0  0  0  0  0  0  0  0  0
   -3.5445   -1.6131   -0.5237 C   0  0  0  0  0  0  0  0  0  0  0  0
   -2.1555   -1.9672   -1.0880 C   0  0  0  0  0  0  0  0  0  0  0  0
   -1.1957   -1.0825   -0.2997 C   0  0  1  0  0  0  0  0  0  0  0  0
    0.2272   -0.8308   -0.8474 C   0  0  2  0  0  0  0  0  0  0  0  0
    0.9434   -2.1739   -1.0865 C   0  0  0  0  0  0  0  0  0  0  0  0
    2.3732   -1.9641   -1.5720 C   0  0  0  0  0  0  0  0  0  0  0  0
    3.1443   -1.0870   -0.6154 C   0  0  0  0  0  0  0  0  0  0  0  0
    4.4214   -1.4071   -0.3350 C   0  0  0  0  0  0  0  0  0  0  0  0
    5.2914   -0.5224    0.4505 C   0  0  0  0  0  0  0  0  0  0  0  0
    6.4671   -0.8837    0.7217 O   0  0  0  0  0  0  0  0  0  0  0  0
    4.8158    0.8313    0.8670 C   0  0  0  0  0  0  0  0  0  0  0  0
    3.2958    0.8284    1.0465 C   0  0  0  0  0  0  0  0  0  0  0  0
    2.5319    0.2566   -0.1922 C   0  0  1  0  0  0  0  0  0  0  0  0
    2.6889    1.2346   -1.3868 C   0  0  0  0  0  0  0  0  0  0  0  0
    1.0186    0.0163    0.2087 C   0  0  1  0  0  0  0  0  0  0  0  0
    0.2386    1.2956    0.6872 C   0  0  1  0  0  0  0  0  0  0  0  0
    0.2927    2.3156   -0.2738 O   0  0  0  0  0  0  0  0  0  0  0  0
   -1.2411    0.9992    1.0630 C   0  0  0  0  0  0  0  0  0  0  0  0
   -1.9827    0.2069   -0.0397 C   0  0  2  0  0  0  0  0  0  0  0  0
   -2.1822    1.0856   -1.3184 C   0  0  0  0  0  0  0  0  0  0  0  0
   -4.5069    0.5865    0.4197 C   0  0  0  0  0  0  0  0  0  0  0  0
   -5.1192    0.8121   -0.6141 O   0  0  0  0  0  0  0  0  0  0  0  0
   -4.9363    1.3158    1.6677 C   0  0  0  0  0  0  0  0  0  0  0  0
   -4.0779    1.0523    2.7429 O   0  0  0  0  0  0  0  0  0  0  0  0
   -3.2217   -0.8057    1.4365 H   0  0  0  0  0  0  0  0  0  0  0  0
   -3.9618   -2.4688    0.0512 H   0  0  0  0  0  0  0  0  0  0  0  0
   -4.2342   -1.3905   -1.3662 H   0  0  0  0  0  0  0  0  0  0  0  0
   -1.9271   -3.0446   -0.9354 H   0  0  0  0  0  0  0  0  0  0  0  0
   -2.1004   -1.7316   -2.1734 H   0  0  0  0  0  0  0  0  0  0  0  0
   -1.0574   -1.6085    0.6784 H   0  0  0  0  0  0  0  0  0  0  0  0
    0.1718   -0.3048   -1.8197 H   0  0  0  0  0  0  0  0  0  0  0  0
    0.9605   -2.7752   -0.1500 H   0  0  0  0  0  0  0  0  0  0  0  0
    0.3985   -2.7596   -1.8581 H   0  0  0  0  0  0  0  0  0  0  0  0
    2.8503   -2.9628   -1.6847 H   0  0  0  0  0  0  0  0  0  0  0  0
    2.3610   -1.4849   -2.5747 H   0  0  0  0  0  0  0  0  0  0  0  0
    4.8437   -2.3357   -0.7012 H   0  0  0  0  0  0  0  0  0  0  0  0
    5.2957    1.1188    1.8276 H   0  0  0  0  0  0  0  0  0  0  0  0
    5.1120    1.5762    0.0985 H   0  0  0  0  0  0  0  0  0  0  0  0
    3.0602    0.2207    1.9488 H   0  0  0  0  0  0  0  0  0  0  0  0
    2.9752    1.8708    1.2588 H   0  0  0  0  0  0  0  0  0  0  0  0
    2.5734    2.2917   -1.0719 H   0  0  0  0  0  0  0  0  0  0  0  0
    3.7033    1.1507   -1.8331 H   0  0  0  0  0  0  0  0  0  0  0  0
    1.9592    1.0218   -2.1929 H   0  0  0  0  0  0  0  0  0  0  0  0
    1.0598   -0.6298    1.1174 H   0  0  0  0  0  0  0  0  0  0  0  0
    0.7268    1.6592    1.6202 H   0  0  0  0  0  0  0  0  0  0  0  0
    0.0772    3.1664    0.1906 H   0  0  0  0  0  0  0  0  0  0  0  0
   -1.7759    1.9514    1.2713 H   0  0  0  0  0  0  0  0  0  0  0  0
   -1.2478    0.4173    2.0115 H   0  0  0  0  0  0  0  0  0  0  0  0
   -2.8204    0.5782   -2.0709 H   0  0  0  0  0  0  0  0  0  0  0  0
   -1.2396    1.3413   -1.8319 H   0  0  0  0  0  0  0  0  0  0  0  0
   -2.6743    2.0444   -1.0497 H   0  0  0  0  0  0  0  0  0  0  0  0
   -5.9705    0.9996    1.9281 H   0  0  0  0  0  0  0  0  0  0  0  0
   -4.9374    2.4085    1.4574 H   0  0  0  0  0  0  0  0  0  0  0  0
   -4.4298    1.5731    3.5108 H   0  0  0  0  0  0  0  0  0  0  0  0
  1  2  1  0
  2  3  1  0
  3  4  1  0
  4  5  1  0
  5  6  1  0
  6  7  1  0
  7  8  1  0
  8  9  2  0
  9 10  1  0
 10 11  2  0
 10 12  1  0
 12 13  1  0
 13 14  1  0
 14 15  1  6
 14 16  1  0
 16 17  1  0
 17 18  1  0
 17 19  1  0
 19 20  1  0
 20 21  1  6
  1 22  1  0
 22 23  2  0
 22 24  1  0
 24 25  1  0
 20  1  1  0
 20  4  1  0
 16  5  1  0
 14  8  1  0
  1 26  1  1
  2 27  1  0
  2 28  1  0
  3 29  1  0
  3 30  1  0
  4 31  1  1
  5 32  1  6
  6 33  1  0
  6 34  1  0
  7 35  1  0
  7 36  1  0
  9 37  1  0
 12 38  1  0
 12 39  1  0
 13 40  1  0
 13 41  1  0
 15 42  1  0
 15 43  1  0
 15 44  1  0
 16 45  1  1
 17 46  1  1
 18 47  1  0
 19 48  1  0
 19 49  1  0
 21 50  1  0
 21 51  1  0
 21 52  1  0
 24 53  1  0
 24 54  1  0
 25 55  1  0
M  END
$$$$
