
     RDKit          3D

 27 28  0  0  0  0  0  0  0  0999 V2000
    0.4514   -0.5376    1.1229 C   0  0  2  0  0  0  0  0  0  0  0  0
   -0.0983   -1.9330    0.7444 C   0  0  0  0  0  0  0  0  0  0  0  0
   -1.3620   -1.7086   -0.1085 C   0  0  0  0  0  0  0  0  0  0  0  0
   -1.5865   -0.2414   -0.0562 C   0  0  0  0  0  0  0  0  0  0  0  0
   -0.5837    0.4057    0.6253 C   0  0  0  0  0  0  0  0  0  0  0  0
   -0.5955    1.7937    0.7861 C   0  0  0  0  0  0  0  0  0  0  0  0
   -1.6538    2.5284    0.2331 C   0  0  0  0  0  0  0  0  0  0  0  0
   -2.6785    1.8718   -0.4702 C   0  0  0  0  0  0  0  0  0  0  0  0
   -2.6518    0.4762   -0.6231 C   0  0  0  0  0  0  0  0  0  0  0  0
   -3.6717   -0.1610   -1.3280 O   0  0  0  0  0  0  0  0  0  0  0  0
    1.7573   -0.2730    0.5099 N   0  0  0  0  0  0  0  0  0  0  0  0
    1.9786   -0.2576   -0.7718 C   0  0  0  0  0  0  0  0  0  0  0  0
    3.3184    0.0187   -1.3145 C   0  0  0  0  0  0  0  0  0  0  0  0
    4.3754    0.2696   -0.5429 C   0  0  0  0  0  0  0  0  0  0  0  0
    0.5416   -0.4457    2.2268 H   0  0  0  0  0  0  0  0  0  0  0  0
   -0.3691   -2.4883    1.6692 H   0  0  0  0  0  0  0  0  0  0  0  0
    0.6483   -2.5393    0.1863 H   0  0  0  0  0  0  0  0  0  0  0  0
   -2.2316   -2.2525    0.3194 H   0  0  0  0  0  0  0  0  0  0  0  0
   -1.1872   -2.0261   -1.1591 H   0  0  0  0  0  0  0  0  0  0  0  0
    0.1990    2.2945    1.3242 H   0  0  0  0  0  0  0  0  0  0  0  0
   -1.6801    3.6045    0.3459 H   0  0  0  0  0  0  0  0  0  0  0  0
   -3.4901    2.4473   -0.8966 H   0  0  0  0  0  0  0  0  0  0  0  0
   -3.6849   -1.1646   -1.4632 H   0  0  0  0  0  0  0  0  0  0  0  0
    1.1715   -0.4487   -1.4690 H   0  0  0  0  0  0  0  0  0  0  0  0
    3.4453    0.0176   -2.3897 H   0  0  0  0  0  0  0  0  0  0  0  0
    4.2997    0.2826    0.5369 H   0  0  0  0  0  0  0  0  0  0  0  0
    5.3383    0.4668   -0.9961 H   0  0  0  0  0  0  0  0  0  0  0  0
  1  2  1  0
  2  3  1  0
  3  4  1  0
  4  5  2  0
  5  6  1  0
  6  7  2  0
  7  8  1  0
  8  9  2  0
  9 10  1  0
  1 11  1  0
 11 12  2  0
 12 13  1  0
 13 14  2  0
  5  1  1  0
  9  4  1  0
  1 15  1  1
  2 16  1  0
  2 17  1  0
  3 18  1  0
  3 19  1  0
  6 20  1  0
  7 21  1  0
  8 22  1  0
 10 23  1  0
 12 24  1  0
 13 25  1  0
 14 26  1  0
 14 27  1  0
M  END
$$$$
