
     RDKit          3D

 55 58  0  0  0  0  0  0  0  0999 V2000
   10.5843   -0.8363   -0.5882 C   0  0  0  0  0  0  0  0  0  0  0  0
    9.1638   -1.2893   -0.4966 C   0  0  0  0  0  0  0  0  0  0  0  0
    8.7054   -2.0801   -1.3650 O   0  0  0  0  0  0  0  0  0  0  0  0
    8.3449   -0.8583    0.5989 N   0  0  0  0  0  0  0  0  0  0  0  0
    6.9458   -1.2573    0.7414 C   0  0  0  0  0  0  0  0  0  0  0  0
    6.0620   -0.4967   -0.2549 C   0  0  1  0  0  0  0  0  0  0  0  0
    4.5586   -0.8712   -0.1178 C   0  0  0  0  0  0  0  0  0  0  0  0
    3.8630    0.3960    0.0876 N   0  0  0  0  0  0  0  0  0  0  0  0
    4.8575    1.3995    0.1833 C   0  0  0  0  0  0  0  0  0  0  0  0
    4.6249    2.6028    0.4714 O   0  0  0  0  0  0  0  0  0  0  0  0
    6.1261    0.9030   -0.0007 O   0  0  0  0  0  0  0  0  0  0  0  0
    2.4324    0.5711    0.1230 C   0  0  0  0  0  0  0  0  0  0  0  0
    1.6050   -0.4635    0.5889 C   0  0  0  0  0  0  0  0  0  0  0  0
    0.2173   -0.3055    0.6188 C   0  0  0  0  0  0  0  0  0  0  0  0
   -0.3760    0.8860    0.1706 C   0  0  0  0  0  0  0  0  0  0  0  0
    0.4498    1.9214   -0.3060 C   0  0  0  0  0  0  0  0  0  0  0  0
   -0.0821    3.0993   -0.7210 F   0  0  0  0  0  0  0  0  0  0  0  0
    1.8389    1.7610   -0.3325 C   0  0  0  0  0  0  0  0  0  0  0  0
   -1.8513    1.0365    0.2019 C   0  0  0  0  0  0  0  0  0  0  0  0
   -2.5780    0.6720    1.3485 C   0  0  0  0  0  0  0  0  0  0  0  0
   -3.9691    0.8054    1.3779 C   0  0  0  0  0  0  0  0  0  0  0  0
   -4.6561    1.3113    0.2645 C   0  0  0  0  0  0  0  0  0  0  0  0
   -6.1563    1.4162    0.2846 C   0  0  0  0  0  0  0  0  0  0  0  0
   -6.7468    0.1273   -0.0912 N   0  0  0  0  0  0  0  0  0  0  0  0
   -8.2084    0.1883    0.0074 C   0  0  0  0  0  0  0  0  0  0  0  0
   -8.7902   -1.1566   -0.2932 C   0  0  0  0  0  0  0  0  0  0  0  0
   -9.1988   -1.6335   -1.5178 C   0  0  0  0  0  0  0  0  0  0  0  0
   -9.5730   -2.9171   -1.3455 N   0  0  0  0  0  0  0  0  0  0  0  0
   -9.3869   -3.2098   -0.0651 N   0  0  0  0  0  0  0  0  0  0  0  0
   -8.9088   -2.1625    0.5865 N   0  0  0  0  0  0  0  0  0  0  0  0
   -3.9364    1.6547   -0.8897 C   0  0  0  0  0  0  0  0  0  0  0  0
   -2.5452    1.5224   -0.9198 C   0  0  0  0  0  0  0  0  0  0  0  0
   10.6432    0.2557   -0.3974 H   0  0  0  0  0  0  0  0  0  0  0  0
   11.1928   -1.3732    0.1689 H   0  0  0  0  0  0  0  0  0  0  0  0
   10.9950   -1.0444   -1.5991 H   0  0  0  0  0  0  0  0  0  0  0  0
    8.7761   -0.2780    1.3535 H   0  0  0  0  0  0  0  0  0  0  0  0
    6.6077   -1.0320    1.7768 H   0  0  0  0  0  0  0  0  0  0  0  0
    6.8499   -2.3534    0.5816 H   0  0  0  0  0  0  0  0  0  0  0  0
    6.3987   -0.6918   -1.2963 H   0  0  0  0  0  0  0  0  0  0  0  0
    4.1918   -1.3593   -1.0465 H   0  0  0  0  0  0  0  0  0  0  0  0
    4.3800   -1.5424    0.7501 H   0  0  0  0  0  0  0  0  0  0  0  0
    2.0302   -1.3936    0.9407 H   0  0  0  0  0  0  0  0  0  0  0  0
   -0.3957   -1.1226    0.9790 H   0  0  0  0  0  0  0  0  0  0  0  0
    2.4444    2.5630   -0.7309 H   0  0  0  0  0  0  0  0  0  0  0  0
   -2.0676    0.2934    2.2255 H   0  0  0  0  0  0  0  0  0  0  0  0
   -4.5110    0.5146    2.2695 H   0  0  0  0  0  0  0  0  0  0  0  0
   -6.4843    1.7053    1.3083 H   0  0  0  0  0  0  0  0  0  0  0  0
   -6.4927    2.2158   -0.4145 H   0  0  0  0  0  0  0  0  0  0  0  0
   -6.5008   -0.0573   -1.0934 H   0  0  0  0  0  0  0  0  0  0  0  0
   -8.5133    0.4789    1.0368 H   0  0  0  0  0  0  0  0  0  0  0  0
   -8.6172    0.9371   -0.7082 H   0  0  0  0  0  0  0  0  0  0  0  0
   -9.2139   -1.1019   -2.4598 H   0  0  0  0  0  0  0  0  0  0  0  0
   -8.6637   -2.1497    1.6012 H   0  0  0  0  0  0  0  0  0  0  0  0
   -4.4529    2.0196   -1.7690 H   0  0  0  0  0  0  0  0  0  0  0  0
   -2.0133    1.7798   -1.8272 H   0  0  0  0  0  0  0  0  0  0  0  0
  1  2  1  0
  2  3  2  0
  2  4  1  0
  4  5  1  0
  5  6  1  0
  6  7  1  0
  7  8  1  0
  8  9  1  0
  9 10  2  0
  9 11  1  0
  8 12  1  0
 12 13  2  0
 13 14  1  0
 14 15  2  0
 15 16  1  0
 16 17  1  0
 16 18  2  0
 15 19  1  0
 19 20  2  0
 20 21  1  0
 21 22  2  0
 22 23  1  0
 23 24  1  0
 24 25  1  0
 25 26  1  0
 26 27  2  0
 27 28  1  0
 28 29  2  0
 29 30  1  0
 22 31  1  0
 31 32  2  0
 11  6  1  0
 18 12  1  0
 32 19  1  0
 30 26  1  0
  1 33  1  0
  1 34  1  0
  1 35  1  0
  4 36  1  0
  5 37  1  0
  5 38  1  0
  6 39  1  6
  7 40  1  0
  7 41  1  0
 13 42  1  0
 14 43  1  0
 18 44  1  0
 20 45  1  0
 21 46  1  0
 23 47  1  0
 23 48  1  0
 24 49  1  0
 25 50  1  0
 25 51  1  0
 27 52  1  0
 30 53  1  0
 31 54  1  0
 32 55  1  0
M  END
$$$$
