
     RDKit          3D

 31 30  0  0  0  0  0  0  0  0999 V2000
   -2.7072   -0.7871    2.0057 O   0  0  0  0  0  0  0  0  0  0  0  0
   -3.4287   -0.8359    0.8061 C   0  0  0  0  0  0  0  0  0  0  0  0
   -3.1706    0.4326   -0.0324 C   0  0  2  0  0  0  0  0  0  0  0  0
   -4.2406    0.6303   -0.9239 O   0  0  0  0  0  0  0  0  0  0  0  0
   -1.8291    0.3886   -0.8220 C   0  0  1  0  0  0  0  0  0  0  0  0
   -1.7693    1.4610   -1.7318 O   0  0  0  0  0  0  0  0  0  0  0  0
   -0.5655    0.3730    0.0828 C   0  0  2  0  0  0  0  0  0  0  0  0
   -0.5405    1.5248    0.8910 O   0  0  0  0  0  0  0  0  0  0  0  0
    0.7363    0.3151   -0.7570 C   0  0  2  0  0  0  0  0  0  0  0  0
    0.7158   -0.7753   -1.6463 O   0  0  0  0  0  0  0  0  0  0  0  0
    1.9864    0.2440    0.1365 C   0  0  0  0  0  0  0  0  0  0  0  0
    3.1341    0.1904   -0.6784 O   0  0  0  0  0  0  0  0  0  0  0  0
    4.5088    0.1079    0.3287 P   0  0  0  0  0  5  0  0  0  0  0  0
    4.4061   -1.2320    1.3589 O   0  0  0  0  0  0  0  0  0  0  0  0
    5.8897   -0.0412   -0.6370 O   0  0  0  0  0  0  0  0  0  0  0  0
    4.6225    1.3697    1.1545 O   0  0  0  0  0  0  0  0  0  0  0  0
   -2.8951   -1.6407    2.4758 H   0  0  0  0  0  0  0  0  0  0  0  0
   -4.5141   -0.8968    1.0465 H   0  0  0  0  0  0  0  0  0  0  0  0
   -3.1511   -1.7449    0.2264 H   0  0  0  0  0  0  0  0  0  0  0  0
   -3.1586    1.3070    0.6539 H   0  0  0  0  0  0  0  0  0  0  0  0
   -4.2681   -0.1516   -1.5362 H   0  0  0  0  0  0  0  0  0  0  0  0
   -1.8309   -0.5475   -1.4221 H   0  0  0  0  0  0  0  0  0  0  0  0
   -1.8254    2.3027   -1.2082 H   0  0  0  0  0  0  0  0  0  0  0  0
   -0.5864   -0.5465    0.7130 H   0  0  0  0  0  0  0  0  0  0  0  0
   -0.9278    1.2784    1.7708 H   0  0  0  0  0  0  0  0  0  0  0  0
    0.8094    1.2458   -1.3615 H   0  0  0  0  0  0  0  0  0  0  0  0
    0.6491   -1.6042   -1.1031 H   0  0  0  0  0  0  0  0  0  0  0  0
    1.9147   -0.6640    0.7778 H   0  0  0  0  0  0  0  0  0  0  0  0
    2.0134    1.1509    0.7825 H   0  0  0  0  0  0  0  0  0  0  0  0
    4.2982   -2.0079    0.7529 H   0  0  0  0  0  0  0  0  0  0  0  0
    5.7248   -0.8464   -1.1896 H   0  0  0  0  0  0  0  0  0  0  0  0
  1  2  1  0
  2  3  1  0
  3  4  1  0
  3  5  1  0
  5  6  1  0
  5  7  1  0
  7  8  1  0
  7  9  1  0
  9 10  1  0
  9 11  1  0
 11 12  1  0
 12 13  1  0
 13 14  1  0
 13 15  1  0
 13 16  2  0
  1 17  1  0
  2 18  1  0
  2 19  1  0
  3 20  1  1
  4 21  1  0
  5 22  1  6
  6 23  1  0
  7 24  1  1
  8 25  1  0
  9 26  1  6
 10 27  1  0
 11 28  1  0
 11 29  1  0
 14 30  1  0
 15 31  1  0
M  END
$$$$
