
     RDKit          3D

 51 54  0  0  0  0  0  0  0  0999 V2000
   -8.5759   -0.3705    0.8854 C   0  0  0  0  0  0  0  0  0  0  0  0
   -7.6339    0.7060    0.3555 C   0  0  0  0  0  0  0  0  0  0  0  0
   -6.2349    0.3197    0.5413 N   0  0  0  0  0  0  0  0  0  0  0  0
   -5.1640    1.1800    0.1167 C   0  0  0  0  0  0  0  0  0  0  0  0
   -5.4405    2.2612   -0.4729 O   0  0  0  0  0  0  0  0  0  0  0  0
   -3.7825    0.8271    0.3558 N   0  0  0  0  0  0  0  0  0  0  0  0
   -2.7048    1.6373   -0.2355 C   0  0  0  0  0  0  0  0  0  0  0  0
   -1.5343    0.7529   -0.6941 C   0  0  0  0  0  0  0  0  0  0  0  0
   -1.1560   -0.3695    0.3100 C   0  0  0  0  0  0  0  0  0  0  0  0
   -1.9449   -0.2681    1.6261 C   0  0  0  0  0  0  0  0  0  0  0  0
   -3.4494   -0.2152    1.3408 C   0  0  0  0  0  0  0  0  0  0  0  0
    0.2864   -0.3541    0.5798 N   0  0  0  0  0  0  0  0  0  0  0  0
    1.2557   -0.7457   -0.4010 C   0  0  0  0  0  0  0  0  0  0  0  0
    2.5782   -0.7020   -0.0940 N   0  0  0  0  0  0  0  0  0  0  0  0
    3.5343   -1.0637   -0.9915 C   0  0  0  0  0  0  0  0  0  0  0  0
    4.9506   -1.0013   -0.5751 C   0  0  0  0  0  0  0  0  0  0  0  0
    5.9449   -1.9482   -0.8199 C   0  0  0  0  0  0  0  0  0  0  0  0
    7.0989   -1.5933   -0.2112 N   0  0  0  0  0  0  0  0  0  0  0  0
    6.8436   -0.4387    0.4264 C   0  0  0  0  0  0  0  0  0  0  0  0
    7.7281    0.3088    1.2028 C   0  0  0  0  0  0  0  0  0  0  0  0
    7.2486    1.4935    1.7899 C   0  0  0  0  0  0  0  0  0  0  0  0
    5.9112    1.9003    1.5898 C   0  0  0  0  0  0  0  0  0  0  0  0
    5.0402    1.1252    0.8027 C   0  0  0  0  0  0  0  0  0  0  0  0
    5.5421   -0.0484    0.2358 C   0  0  0  0  0  0  0  0  0  0  0  0
    3.1409   -1.4835   -2.2776 C   0  0  0  0  0  0  0  0  0  0  0  0
    4.2906   -1.8718   -3.5527 Cl  0  0  0  0  0  0  0  0  0  0  0  0
    1.7767   -1.5251   -2.5714 C   0  0  0  0  0  0  0  0  0  0  0  0
    0.8651   -1.1600   -1.6353 N   0  0  0  0  0  0  0  0  0  0  0  0
   -9.6290   -0.0526    0.7342 H   0  0  0  0  0  0  0  0  0  0  0  0
   -8.4086   -1.3253    0.3430 H   0  0  0  0  0  0  0  0  0  0  0  0
   -8.4020   -0.5294    1.9710 H   0  0  0  0  0  0  0  0  0  0  0  0
   -7.8345    0.8621   -0.7265 H   0  0  0  0  0  0  0  0  0  0  0  0
   -7.8299    1.6568    0.8966 H   0  0  0  0  0  0  0  0  0  0  0  0
   -6.0183   -0.6042    0.9764 H   0  0  0  0  0  0  0  0  0  0  0  0
   -3.0679    2.2108   -1.1157 H   0  0  0  0  0  0  0  0  0  0  0  0
   -2.3460    2.3699    0.5197 H   0  0  0  0  0  0  0  0  0  0  0  0
   -0.6619    1.4139   -0.8918 H   0  0  0  0  0  0  0  0  0  0  0  0
   -1.8070    0.2839   -1.6651 H   0  0  0  0  0  0  0  0  0  0  0  0
   -1.4154   -1.3529   -0.1446 H   0  0  0  0  0  0  0  0  0  0  0  0
   -1.7230   -1.1502    2.2655 H   0  0  0  0  0  0  0  0  0  0  0  0
   -1.6418    0.6449    2.1849 H   0  0  0  0  0  0  0  0  0  0  0  0
   -3.9836   -0.0144    2.2949 H   0  0  0  0  0  0  0  0  0  0  0  0
   -3.7724   -1.2050    0.9512 H   0  0  0  0  0  0  0  0  0  0  0  0
    0.6333   -0.0786    1.5271 H   0  0  0  0  0  0  0  0  0  0  0  0
    5.8233   -2.8663   -1.3791 H   0  0  0  0  0  0  0  0  0  0  0  0
    7.9987   -2.1231   -0.2209 H   0  0  0  0  0  0  0  0  0  0  0  0
    8.7516   -0.0109    1.3500 H   0  0  0  0  0  0  0  0  0  0  0  0
    7.9094    2.0978    2.3976 H   0  0  0  0  0  0  0  0  0  0  0  0
    5.5541    2.8156    2.0435 H   0  0  0  0  0  0  0  0  0  0  0  0
    4.0180    1.4402    0.6410 H   0  0  0  0  0  0  0  0  0  0  0  0
    1.4382   -1.8360   -3.5511 H   0  0  0  0  0  0  0  0  0  0  0  0
  1  2  1  0
  2  3  1  0
  3  4  1  0
  4  5  2  0
  4  6  1  0
  6  7  1  0
  7  8  1  0
  8  9  1  0
  9 10  1  0
 10 11  1  0
  9 12  1  0
 12 13  1  0
 13 14  2  0
 14 15  1  0
 15 16  1  0
 16 17  2  0
 17 18  1  0
 18 19  1  0
 19 20  2  0
 20 21  1  0
 21 22  2  0
 22 23  1  0
 23 24  2  0
 15 25  2  0
 25 26  1  0
 25 27  1  0
 27 28  2  0
 11  6  1  0
 28 13  1  0
 24 16  1  0
 24 19  1  0
  1 29  1  0
  1 30  1  0
  1 31  1  0
  2 32  1  0
  2 33  1  0
  3 34  1  0
  7 35  1  0
  7 36  1  0
  8 37  1  0
  8 38  1  0
  9 39  1  0
 10 40  1  0
 10 41  1  0
 11 42  1  0
 11 43  1  0
 12 44  1  0
 17 45  1  0
 18 46  1  0
 20 47  1  0
 21 48  1  0
 22 49  1  0
 23 50  1  0
 27 51  1  0
M  END
$$$$
