
     RDKit          3D

 34 35  0  0  0  0  0  0  0  0999 V2000
    4.3813    1.0522   -0.4973 N   0  0  0  0  0  0  0  0  0  0  0  0
    3.8310   -0.1982   -0.0836 C   0  0  0  0  0  0  0  0  0  0  0  0
    4.5881   -1.0906    0.3830 O   0  0  0  0  0  0  0  0  0  0  0  0
    2.3569   -0.4376   -0.1572 C   0  0  0  0  0  0  0  0  0  0  0  0
    1.5710    0.0942    1.3852 S   0  0  0  0  0  4  0  0  0  0  0  0
    1.8582    1.5869    1.4924 O   0  0  0  0  0  0  0  0  0  0  0  0
   -0.2445   -0.0634    1.2393 C   0  0  0  0  0  0  0  0  0  0  0  0
   -0.6285   -1.3097    0.4640 C   0  0  0  0  0  0  0  0  0  0  0  0
   -0.8207   -2.5217    1.1534 C   0  0  0  0  0  0  0  0  0  0  0  0
   -1.1394   -3.6921    0.4585 C   0  0  0  0  0  0  0  0  0  0  0  0
   -1.2590   -3.6705   -0.9323 C   0  0  0  0  0  0  0  0  0  0  0  0
   -1.0551   -2.4793   -1.6314 C   0  0  0  0  0  0  0  0  0  0  0  0
   -0.7368   -1.3058   -0.9417 C   0  0  0  0  0  0  0  0  0  0  0  0
   -0.9742    1.1814    0.7483 C   0  0  0  0  0  0  0  0  0  0  0  0
   -0.4705    2.0012   -0.2825 C   0  0  0  0  0  0  0  0  0  0  0  0
   -1.1960    3.1100   -0.7282 C   0  0  0  0  0  0  0  0  0  0  0  0
   -2.4373    3.4089   -0.1645 C   0  0  0  0  0  0  0  0  0  0  0  0
   -2.9590    2.5957    0.8424 C   0  0  0  0  0  0  0  0  0  0  0  0
   -2.2375    1.4860    1.2918 C   0  0  0  0  0  0  0  0  0  0  0  0
    5.4091    1.2233   -0.4316 H   0  0  0  0  0  0  0  0  0  0  0  0
    3.7640    1.8104   -0.8641 H   0  0  0  0  0  0  0  0  0  0  0  0
    1.9332    0.1042   -1.0248 H   0  0  0  0  0  0  0  0  0  0  0  0
    2.1665   -1.5218   -0.3034 H   0  0  0  0  0  0  0  0  0  0  0  0
   -0.5694   -0.2119    2.2931 H   0  0  0  0  0  0  0  0  0  0  0  0
   -0.7213   -2.5630    2.2311 H   0  0  0  0  0  0  0  0  0  0  0  0
   -1.2895   -4.6177    0.9991 H   0  0  0  0  0  0  0  0  0  0  0  0
   -1.5037   -4.5780   -1.4688 H   0  0  0  0  0  0  0  0  0  0  0  0
   -1.1386   -2.4659   -2.7105 H   0  0  0  0  0  0  0  0  0  0  0  0
   -0.5680   -0.4034   -1.5111 H   0  0  0  0  0  0  0  0  0  0  0  0
    0.4777    1.7912   -0.7502 H   0  0  0  0  0  0  0  0  0  0  0  0
   -0.7967    3.7354   -1.5162 H   0  0  0  0  0  0  0  0  0  0  0  0
   -2.9979    4.2668   -0.5128 H   0  0  0  0  0  0  0  0  0  0  0  0
   -3.9261    2.8219    1.2726 H   0  0  0  0  0  0  0  0  0  0  0  0
   -2.6674    0.8609    2.0648 H   0  0  0  0  0  0  0  0  0  0  0  0
  1  2  1  0
  2  3  2  0
  2  4  1  0
  5  4  1  6
  5  6  2  0
  5  7  1  0
  7  8  1  0
  8  9  2  0
  9 10  1  0
 10 11  2  0
 11 12  1  0
 12 13  2  0
  7 14  1  0
 14 15  2  0
 15 16  1  0
 16 17  2  0
 17 18  1  0
 18 19  2  0
 13  8  1  0
 19 14  1  0
  1 20  1  0
  1 21  1  0
  4 22  1  0
  4 23  1  0
  7 24  1  0
  9 25  1  0
 10 26  1  0
 11 27  1  0
 12 28  1  0
 13 29  1  0
 15 30  1  0
 16 31  1  0
 17 32  1  0
 18 33  1  0
 19 34  1  0
M  END
$$$$
