
     RDKit          3D

 54 61  0  0  0  0  0  0  0  0999 V2000
   -4.0620   -0.2591   -2.3372 C   0  0  0  0  0  0  0  0  0  0  0  0
   -3.4474   -0.5513   -0.9896 C   0  0  0  0  0  0  0  0  0  0  0  0
   -4.0959   -1.4995   -0.2005 C   0  0  0  0  0  0  0  0  0  0  0  0
   -3.4506   -2.0987    0.8733 C   0  0  0  0  0  0  0  0  0  0  0  0
   -4.2283   -2.9029    1.7110 O   0  0  0  0  0  0  0  0  0  0  0  0
   -2.0565   -1.8895    1.0543 C   0  0  0  0  0  0  0  0  0  0  0  0
   -1.2655   -2.7591    1.8392 C   0  0  0  0  0  0  0  0  0  0  0  0
   -1.7953   -3.7626    2.3880 O   0  0  0  0  0  0  0  0  0  0  0  0
    0.1314   -2.5715    1.9407 C   0  0  0  0  0  0  0  0  0  0  0  0
    0.9444   -3.4892    2.6513 C   0  0  0  0  0  0  0  0  0  0  0  0
    0.3871   -4.5226    3.4078 O   0  0  0  0  0  0  0  0  0  0  0  0
    2.3299   -3.3973    2.5678 C   0  0  0  0  0  0  0  0  0  0  0  0
    2.9358   -2.3715    1.8484 C   0  0  0  0  0  0  0  0  0  0  0  0
    4.3001   -2.4729    1.5712 O   0  0  0  0  0  0  0  0  0  0  0  0
    2.1549   -1.3032    1.3372 C   0  0  0  0  0  0  0  0  0  0  0  0
    0.7458   -1.4800    1.2678 C   0  0  0  0  0  0  0  0  0  0  0  0
   -0.0377   -0.6045    0.4786 C   0  0  0  0  0  0  0  0  0  0  0  0
   -1.4272   -0.8357    0.3349 C   0  0  0  0  0  0  0  0  0  0  0  0
   -2.1850   -0.0448   -0.5699 C   0  0  0  0  0  0  0  0  0  0  0  0
   -1.6101    1.1482   -1.0909 C   0  0  0  0  0  0  0  0  0  0  0  0
   -2.3834    2.2465   -1.5621 C   0  0  0  0  0  0  0  0  0  0  0  0
   -3.7896    2.5418   -1.0989 C   0  0  0  0  0  0  0  0  0  0  0  0
   -1.7780    3.2073   -2.3701 C   0  0  0  0  0  0  0  0  0  0  0  0
   -0.4024    3.2189   -2.5594 C   0  0  0  0  0  0  0  0  0  0  0  0
    0.0975    4.1038   -3.5188 O   0  0  0  0  0  0  0  0  0  0  0  0
    0.4174    2.3660   -1.7716 C   0  0  0  0  0  0  0  0  0  0  0  0
    1.8008    2.6034   -1.6049 C   0  0  0  0  0  0  0  0  0  0  0  0
    2.3340    3.6060   -2.1524 O   0  0  0  0  0  0  0  0  0  0  0  0
    2.5775    1.7839   -0.7552 C   0  0  0  0  0  0  0  0  0  0  0  0
    3.9443    2.0679   -0.5118 C   0  0  0  0  0  0  0  0  0  0  0  0
    4.6179    3.0675   -1.2174 O   0  0  0  0  0  0  0  0  0  0  0  0
    4.6313    1.3734    0.4786 C   0  0  0  0  0  0  0  0  0  0  0  0
    4.0141    0.3509    1.1930 C   0  0  0  0  0  0  0  0  0  0  0  0
    4.6442   -0.1276    2.3430 O   0  0  0  0  0  0  0  0  0  0  0  0
    2.7336   -0.1180    0.8021 C   0  0  0  0  0  0  0  0  0  0  0  0
    1.9671    0.6912   -0.0805 C   0  0  0  0  0  0  0  0  0  0  0  0
    0.5823    0.4462   -0.2402 C   0  0  0  0  0  0  0  0  0  0  0  0
   -0.1992    1.3086   -1.0467 C   0  0  0  0  0  0  0  0  0  0  0  0
   -4.2567   -1.2171   -2.8648 H   0  0  0  0  0  0  0  0  0  0  0  0
   -5.0344    0.2597   -2.2115 H   0  0  0  0  0  0  0  0  0  0  0  0
   -3.3919    0.3271   -2.9967 H   0  0  0  0  0  0  0  0  0  0  0  0
   -5.1105   -1.7983   -0.4384 H   0  0  0  0  0  0  0  0  0  0  0  0
   -3.9868   -3.1036    2.6722 H   0  0  0  0  0  0  0  0  0  0  0  0
    0.9615   -5.1901    3.9095 H   0  0  0  0  0  0  0  0  0  0  0  0
    2.9434   -4.1656    3.0223 H   0  0  0  0  0  0  0  0  0  0  0  0
    4.8603   -3.2479    1.9070 H   0  0  0  0  0  0  0  0  0  0  0  0
   -4.1289    1.8595   -0.2946 H   0  0  0  0  0  0  0  0  0  0  0  0
   -4.4915    2.5098   -1.9572 H   0  0  0  0  0  0  0  0  0  0  0  0
   -3.8253    3.5669   -0.6721 H   0  0  0  0  0  0  0  0  0  0  0  0
   -2.3807    3.9762   -2.8400 H   0  0  0  0  0  0  0  0  0  0  0  0
    0.9852    3.9761   -3.9858 H   0  0  0  0  0  0  0  0  0  0  0  0
    5.5921    3.2848   -1.0413 H   0  0  0  0  0  0  0  0  0  0  0  0
    5.6411    1.6698    0.7345 H   0  0  0  0  0  0  0  0  0  0  0  0
    5.5456    0.2224    2.6468 H   0  0  0  0  0  0  0  0  0  0  0  0
  1  2  1  0
  2  3  2  0
  3  4  1  0
  4  5  1  0
  4  6  2  0
  6  7  1  0
  7  8  2  0
  7  9  1  0
  9 10  2  0
 10 11  1  0
 10 12  1  0
 12 13  2  0
 13 14  1  0
 13 15  1  0
 15 16  1  0
 16 17  2  0
 17 18  1  0
 18 19  2  0
 19 20  1  0
 20 21  2  0
 21 22  1  0
 21 23  1  0
 23 24  2  0
 24 25  1  0
 24 26  1  0
 26 27  1  0
 27 28  2  0
 27 29  1  0
 29 30  2  0
 30 31  1  0
 30 32  1  0
 32 33  2  0
 33 34  1  0
 33 35  1  0
 35 36  1  0
 36 37  2  0
 37 38  1  0
 19  2  1  0
 38 20  1  0
 18  6  1  0
 38 26  2  0
 16  9  1  0
 37 17  1  0
 35 15  2  0
 36 29  1  0
  1 39  1  0
  1 40  1  0
  1 41  1  0
  3 42  1  0
  5 43  1  0
 11 44  1  0
 12 45  1  0
 14 46  1  0
 22 47  1  0
 22 48  1  0
 22 49  1  0
 23 50  1  0
 25 51  1  0
 31 52  1  0
 32 53  1  0
 34 54  1  0
M  END
$$$$
