
     RDKit          3D

 35 37  0  0  0  0  0  0  0  0999 V2000
   -6.3186    0.4034    0.2943 N   0  0  0  0  0  0  0  0  0  0  0  0
   -5.1163    0.2226    1.0522 C   0  0  0  0  0  0  0  0  0  0  0  0
   -5.1908   -0.2107    2.2759 N   0  0  0  0  0  4  0  0  0  0  0  0
   -3.8019    0.5376    0.4387 C   0  0  0  0  0  0  0  0  0  0  0  0
   -3.6750    1.6454   -0.4437 C   0  0  0  0  0  0  0  0  0  0  0  0
   -2.4374    1.9561   -1.0367 C   0  0  0  0  0  0  0  0  0  0  0  0
   -1.3539    1.1388   -0.7330 C   0  0  0  0  0  0  0  0  0  0  0  0
   -0.0907    1.2389   -1.1637 N   0  0  0  0  0  0  0  0  0  0  0  0
    0.5451    0.2023   -0.5570 C   0  0  0  0  0  0  0  0  0  0  0  0
   -0.2711   -0.5344    0.2457 N   0  0  0  0  0  0  0  0  0  0  0  0
   -1.4608    0.0769    0.1098 C   0  0  0  0  0  0  0  0  0  0  0  0
   -2.6660   -0.2615    0.7188 C   0  0  0  0  0  0  0  0  0  0  0  0
    1.9914   -0.0851   -0.7015 C   0  0  0  0  0  0  0  0  0  0  0  0
    2.6838   -0.6687    0.3744 C   0  0  0  0  0  0  0  0  0  0  0  0
    4.0528   -0.9480    0.2873 C   0  0  0  0  0  0  0  0  0  0  0  0
    4.6838   -1.5218    1.4032 O   0  0  0  0  0  0  0  0  0  0  0  0
    6.0650   -1.8673    1.4821 C   0  0  0  0  0  0  0  0  0  0  0  0
    6.3216   -2.4062    2.7279 F   0  0  0  0  0  0  0  0  0  0  0  0
    6.8490   -0.7400    1.3140 F   0  0  0  0  0  0  0  0  0  0  0  0
    6.3773   -2.8077    0.5167 F   0  0  0  0  0  0  0  0  0  0  0  0
    4.7398   -0.6454   -0.9021 C   0  0  0  0  0  0  0  0  0  0  0  0
    4.0588   -0.0824   -1.9827 C   0  0  0  0  0  0  0  0  0  0  0  0
    2.6907    0.1905   -1.8947 C   0  0  0  0  0  0  0  0  0  0  0  0
    2.0379    0.7055   -3.0090 O   0  0  0  0  0  1  0  0  0  0  0  0
   -7.2535    0.2300    0.7263 H   0  0  0  0  0  0  0  0  0  0  0  0
   -6.2847    0.6616   -0.7166 H   0  0  0  0  0  0  0  0  0  0  0  0
   -4.3411   -0.3217    2.8729 H   0  0  0  0  0  0  0  0  0  0  0  0
   -6.1152   -0.4359    2.7069 H   0  0  0  0  0  0  0  0  0  0  0  0
   -4.5265    2.2788   -0.6569 H   0  0  0  0  0  0  0  0  0  0  0  0
   -2.3328    2.8024   -1.7033 H   0  0  0  0  0  0  0  0  0  0  0  0
    0.3065    1.9789   -1.7834 H   0  0  0  0  0  0  0  0  0  0  0  0
   -2.7214   -1.1240    1.3707 H   0  0  0  0  0  0  0  0  0  0  0  0
    2.1631   -0.8960    1.2970 H   0  0  0  0  0  0  0  0  0  0  0  0
    5.7965   -0.8459   -1.0074 H   0  0  0  0  0  0  0  0  0  0  0  0
    4.5945    0.1328   -2.8988 H   0  0  0  0  0  0  0  0  0  0  0  0
  1  2  1  0
  2  3  2  3
  2  4  1  0
  4  5  2  0
  5  6  1  0
  6  7  2  0
  7  8  1  0
  8  9  1  0
  9 10  2  0
 10 11  1  0
 11 12  2  0
  9 13  1  0
 13 14  2  0
 14 15  1  0
 15 16  1  0
 16 17  1  0
 17 18  1  0
 17 19  1  0
 17 20  1  0
 15 21  2  0
 21 22  1  0
 22 23  2  0
 23 24  1  0
 12  4  1  0
 23 13  1  0
 11  7  1  0
  1 25  1  0
  1 26  1  0
  3 27  1  0
  3 28  1  0
  5 29  1  0
  6 30  1  0
  8 31  1  0
 12 32  1  0
 14 33  1  0
 21 34  1  0
 22 35  1  0
M  CHG  2   3   1  24  -1
M  END
$$$$
