
     RDKit          3D

 77 82  0  0  0  0  0  0  0  0999 V2000
   -5.4189    4.1823   -1.7766 C   0  0  0  0  0  0  0  0  0  0  0  0
   -5.3798    2.7717   -1.2827 C   0  0  0  0  0  0  0  0  0  0  0  0
   -4.5233    2.4328   -0.2752 N   0  0  0  0  0  0  0  0  0  0  0  0
   -4.4880    1.1539    0.1738 C   0  0  0  0  0  0  0  0  0  0  0  0
   -5.2881    0.1663   -0.3625 C   0  0  0  0  0  0  0  0  0  0  0  0
   -4.9427   -0.9960    0.3150 C   0  0  0  0  0  0  0  0  0  0  0  0
   -5.3823   -2.3182    0.1997 C   0  0  0  0  0  0  0  0  0  0  0  0
   -4.7958   -3.2859    1.0325 C   0  0  0  0  0  0  0  0  0  0  0  0
   -3.7925   -2.9262    1.9543 C   0  0  0  0  0  0  0  0  0  0  0  0
   -3.3625   -1.5935    2.0575 C   0  0  0  0  0  0  0  0  0  0  0  0
   -3.9546   -0.6401    1.2215 C   0  0  0  0  0  0  0  0  0  0  0  0
   -3.6756    0.6848    1.1456 N   0  0  0  0  0  0  0  0  0  0  0  0
   -2.6277    1.4384    1.8385 C   0  0  0  0  0  0  0  0  0  0  0  0
   -1.4065    1.5394    0.9642 C   0  0  0  0  0  0  0  0  0  0  0  0
   -0.5830    0.4181    0.7787 C   0  0  0  0  0  0  0  0  0  0  0  0
    0.5321    0.4729   -0.0827 C   0  0  0  0  0  0  0  0  0  0  0  0
    0.8095    1.6848   -0.7436 C   0  0  0  0  0  0  0  0  0  0  0  0
   -0.0107    2.8004   -0.5648 C   0  0  0  0  0  0  0  0  0  0  0  0
   -1.1189    2.7283    0.2792 C   0  0  0  0  0  0  0  0  0  0  0  0
    1.4660   -0.7111   -0.3202 C   0  0  2  0  0  0  0  0  0  0  0  0
    0.8938   -2.1135    0.0767 C   0  0  0  0  0  0  0  0  0  0  0  0
    0.9591   -2.4346    1.5776 C   0  0  0  0  0  0  0  0  0  0  0  0
    2.1810   -3.3216    1.7955 C   0  0  0  0  0  0  0  0  0  0  0  0
    2.6577   -3.7822    0.4228 C   0  0  0  0  0  0  0  0  0  0  0  0
    1.6492   -3.2663   -0.5936 C   0  0  0  0  0  0  0  0  0  0  0  0
    2.8233   -0.4336    0.2851 C   0  0  0  0  0  0  0  0  0  0  0  0
    2.9077    0.0313    1.4554 O   0  0  0  0  0  0  0  0  0  0  0  0
    4.0153   -0.6979   -0.4687 N   0  0  0  0  0  0  0  0  0  0  0  0
    5.3466   -0.3609    0.0460 C   0  0  1  0  0  0  0  0  0  0  0  0
    6.4454   -0.9836   -0.8311 C   0  0  0  0  0  0  0  0  0  0  0  0
    6.3205   -2.3802   -0.8602 O   0  0  0  0  0  0  0  0  0  0  0  0
    5.5185    1.1421    0.1074 C   0  0  0  0  0  0  0  0  0  0  0  0
    5.1540    1.9531   -0.9840 C   0  0  0  0  0  0  0  0  0  0  0  0
    5.3199    3.3396   -0.9201 C   0  0  0  0  0  0  0  0  0  0  0  0
    5.8593    3.9283    0.2263 C   0  0  0  0  0  0  0  0  0  0  0  0
    6.2367    3.1310    1.3098 C   0  0  0  0  0  0  0  0  0  0  0  0
    6.0712    1.7438    1.2515 C   0  0  0  0  0  0  0  0  0  0  0  0
   -6.1884    0.4603   -1.3989 C   0  0  0  0  0  0  0  0  0  0  0  0
   -7.0771   -0.5787   -2.0164 C   0  0  0  0  0  0  0  0  0  0  0  0
   -6.2255    1.7947   -1.8575 C   0  0  0  0  0  0  0  0  0  0  0  0
   -4.6801    4.8076   -1.2314 H   0  0  0  0  0  0  0  0  0  0  0  0
   -6.4325    4.6067   -1.6180 H   0  0  0  0  0  0  0  0  0  0  0  0
   -5.1762    4.2074   -2.8598 H   0  0  0  0  0  0  0  0  0  0  0  0
   -6.1446   -2.6130   -0.5039 H   0  0  0  0  0  0  0  0  0  0  0  0
   -5.1158   -4.3175    0.9638 H   0  0  0  0  0  0  0  0  0  0  0  0
   -3.3491   -3.6834    2.5879 H   0  0  0  0  0  0  0  0  0  0  0  0
   -2.5937   -1.3294    2.7699 H   0  0  0  0  0  0  0  0  0  0  0  0
   -3.0100    2.4500    2.0974 H   0  0  0  0  0  0  0  0  0  0  0  0
   -2.3650    0.9514    2.8006 H   0  0  0  0  0  0  0  0  0  0  0  0
   -0.8379   -0.4901    1.2974 H   0  0  0  0  0  0  0  0  0  0  0  0
    1.6653    1.7634   -1.4034 H   0  0  0  0  0  0  0  0  0  0  0  0
    0.2112    3.7224   -1.0865 H   0  0  0  0  0  0  0  0  0  0  0  0
   -1.7534    3.5982    0.3954 H   0  0  0  0  0  0  0  0  0  0  0  0
    1.5978   -0.7402   -1.4250 H   0  0  0  0  0  0  0  0  0  0  0  0
   -0.1644   -2.1594   -0.2675 H   0  0  0  0  0  0  0  0  0  0  0  0
    1.0119   -1.5290    2.2172 H   0  0  0  0  0  0  0  0  0  0  0  0
    0.0446   -2.9995    1.8661 H   0  0  0  0  0  0  0  0  0  0  0  0
    1.9161   -4.1949    2.4310 H   0  0  0  0  0  0  0  0  0  0  0  0
    2.9864   -2.7472    2.3038 H   0  0  0  0  0  0  0  0  0  0  0  0
    2.7283   -4.8909    0.3773 H   0  0  0  0  0  0  0  0  0  0  0  0
    3.6624   -3.3576    0.2087 H   0  0  0  0  0  0  0  0  0  0  0  0
    2.1491   -2.9712   -1.5413 H   0  0  0  0  0  0  0  0  0  0  0  0
    0.9299   -4.0824   -0.8290 H   0  0  0  0  0  0  0  0  0  0  0  0
    3.9229   -1.1166   -1.4222 H   0  0  0  0  0  0  0  0  0  0  0  0
    5.4462   -0.7952    1.0664 H   0  0  0  0  0  0  0  0  0  0  0  0
    7.4510   -0.6993   -0.4443 H   0  0  0  0  0  0  0  0  0  0  0  0
    6.3634   -0.5998   -1.8708 H   0  0  0  0  0  0  0  0  0  0  0  0
    6.6445   -2.7132    0.0173 H   0  0  0  0  0  0  0  0  0  0  0  0
    4.7377    1.5122   -1.8813 H   0  0  0  0  0  0  0  0  0  0  0  0
    5.0314    3.9577   -1.7604 H   0  0  0  0  0  0  0  0  0  0  0  0
    5.9878    5.0019    0.2738 H   0  0  0  0  0  0  0  0  0  0  0  0
    6.6586    3.5881    2.1955 H   0  0  0  0  0  0  0  0  0  0  0  0
    6.3715    1.1407    2.0993 H   0  0  0  0  0  0  0  0  0  0  0  0
   -6.4575   -1.3664   -2.4932 H   0  0  0  0  0  0  0  0  0  0  0  0
   -7.7316   -0.1383   -2.7983 H   0  0  0  0  0  0  0  0  0  0  0  0
   -7.7307   -1.0243   -1.2379 H   0  0  0  0  0  0  0  0  0  0  0  0
   -6.9003    2.0770   -2.6569 H   0  0  0  0  0  0  0  0  0  0  0  0
  1  2  1  0
  2  3  2  0
  3  4  1  0
  4  5  2  0
  5  6  1  0
  6  7  2  0
  7  8  1  0
  8  9  2  0
  9 10  1  0
 10 11  2  0
 11 12  1  0
 12 13  1  0
 13 14  1  0
 14 15  2  0
 15 16  1  0
 16 17  2  0
 17 18  1  0
 18 19  2  0
 16 20  1  0
 20 21  1  0
 21 22  1  0
 22 23  1  0
 23 24  1  0
 24 25  1  0
 20 26  1  0
 26 27  2  0
 26 28  1  0
 28 29  1  0
 29 30  1  0
 30 31  1  0
 29 32  1  0
 32 33  2  0
 33 34  1  0
 34 35  2  0
 35 36  1  0
 36 37  2  0
  5 38  1  0
 38 39  1  0
 38 40  2  0
 40  2  1  0
 12  4  1  0
 19 14  1  0
 25 21  1  0
 37 32  1  0
 11  6  1  0
  1 41  1  0
  1 42  1  0
  1 43  1  0
  7 44  1  0
  8 45  1  0
  9 46  1  0
 10 47  1  0
 13 48  1  0
 13 49  1  0
 15 50  1  0
 17 51  1  0
 18 52  1  0
 19 53  1  0
 20 54  1  6
 21 55  1  0
 22 56  1  0
 22 57  1  0
 23 58  1  0
 23 59  1  0
 24 60  1  0
 24 61  1  0
 25 62  1  0
 25 63  1  0
 28 64  1  0
 29 65  1  1
 30 66  1  0
 30 67  1  0
 31 68  1  0
 33 69  1  0
 34 70  1  0
 35 71  1  0
 36 72  1  0
 37 73  1  0
 39 74  1  0
 39 75  1  0
 39 76  1  0
 40 77  1  0
M  END
$$$$
