
     RDKit          3D

116121  0  0  0  0  0  0  0  0999 V2000
   -6.7151    4.8073    2.4464 C   0  0  0  0  0  0  0  0  0  0  0  0
   -6.7839    4.5061    0.9542 C   0  0  0  0  0  0  0  0  0  0  0  0
   -5.4096    4.4304    0.3716 C   0  0  0  0  0  0  0  0  0  0  0  0
   -4.9559    5.4013   -0.2933 O   0  0  0  0  0  0  0  0  0  0  0  0
   -4.6363    3.2853    0.5992 O   0  0  0  0  0  0  0  0  0  0  0  0
   -3.2968    3.0964    0.1206 C   0  0  1  0  0  0  0  0  0  0  0  0
   -2.4205    2.7325    1.3222 C   0  0  0  0  0  0  0  0  0  0  0  0
   -2.7989    1.3828    1.9378 C   0  0  1  0  0  0  0  0  0  0  0  0
   -4.1561    1.3032    2.3045 O   0  0  0  0  0  0  0  0  0  0  0  0
   -4.3509    0.2049    1.4449 C   0  0  0  0  0  0  0  0  0  0  0  0
   -2.9177    0.2390    0.9384 C   0  0  2  0  0  0  0  0  0  0  0  0
   -2.2303   -0.9363    1.3907 O   0  0  0  0  0  0  0  0  0  0  0  0
   -0.9060   -0.9836    1.8413 C   0  0  0  0  0  0  0  0  0  0  0  0
   -0.3906   -2.2518    2.4297 C   0  0  0  0  0  0  0  0  0  0  0  0
   -0.1401    0.0100    1.7193 O   0  0  0  0  0  0  0  0  0  0  0  0
   -2.6235    0.6207   -0.5764 C   0  0  1  0  0  0  0  0  0  0  0  0
   -2.7751   -0.5926   -1.6090 C   0  0  2  0  0  0  0  0  0  0  0  0
   -3.2139   -1.7688   -0.9186 O   0  0  0  0  0  0  0  0  0  0  0  0
   -4.5528   -2.1381   -0.7342 C   0  0  0  0  0  0  0  0  0  0  0  0
   -5.4769   -1.4990   -1.3084 O   0  0  0  0  0  0  0  0  0  0  0  0
   -4.8747   -3.2757    0.1527 C   0  0  0  0  0  0  0  0  0  0  0  0
   -6.2101   -3.6587    0.3770 C   0  0  0  0  0  0  0  0  0  0  0  0
   -6.5050   -4.7255    1.2318 C   0  0  0  0  0  0  0  0  0  0  0  0
   -5.4737   -5.4177    1.8709 C   0  0  0  0  0  0  0  0  0  0  0  0
   -4.1448   -5.0452    1.6560 C   0  0  0  0  0  0  0  0  0  0  0  0
   -3.8440   -3.9805    0.8015 C   0  0  0  0  0  0  0  0  0  0  0  0
   -1.5134   -1.0039   -2.5094 C   0  0  2  0  0  0  0  0  0  0  0  0
   -1.9542   -2.0196   -3.3910 O   0  0  0  0  0  0  0  0  0  0  0  0
   -0.3501   -1.5972   -1.6177 C   0  0  0  0  0  0  0  0  0  0  0  0
    0.9709   -0.7751   -1.5520 C   0  0  2  0  0  0  0  0  0  0  0  0
    1.6669   -1.0696   -0.3384 O   0  0  0  0  0  0  0  0  0  0  0  0
    2.4090   -2.2402   -0.1428 C   0  0  0  0  0  0  0  0  0  0  0  0
    2.2718   -3.2251   -0.9185 O   0  0  0  0  0  0  0  0  0  0  0  0
    3.4398   -2.2938    0.9539 C   0  0  2  0  0  0  0  0  0  0  0  0
    2.8359   -2.0450    2.1981 O   0  0  0  0  0  0  0  0  0  0  0  0
    4.5923   -1.2937    0.6912 C   0  0  1  0  0  0  0  0  0  0  0  0
    5.5789   -1.3492    1.7743 N   0  0  0  0  0  0  0  0  0  0  0  0
    6.5792   -0.3393    1.9484 C   0  0  0  0  0  0  0  0  0  0  0  0
    6.6156    0.6535    1.1717 O   0  0  0  0  0  0  0  0  0  0  0  0
    7.5088   -0.4777    2.9898 O   0  0  0  0  0  0  0  0  0  0  0  0
    8.5799    0.4270    3.2982 C   0  0  0  0  0  0  0  0  0  0  0  0
    9.5617    0.5287    2.1151 C   0  0  0  0  0  0  0  0  0  0  0  0
    8.0272    1.8172    3.6667 C   0  0  0  0  0  0  0  0  0  0  0  0
    9.3247   -0.1483    4.5125 C   0  0  0  0  0  0  0  0  0  0  0  0
    5.2701   -1.5967   -0.6173 C   0  0  0  0  0  0  0  0  0  0  0  0
    5.0796   -0.9124   -1.8014 C   0  0  0  0  0  0  0  0  0  0  0  0
    5.8734   -1.5508   -2.7291 C   0  0  0  0  0  0  0  0  0  0  0  0
    6.4947   -2.5838   -2.0564 C   0  0  0  0  0  0  0  0  0  0  0  0
    6.1130   -2.5872   -0.8000 O   0  0  0  0  0  0  0  0  0  0  0  0
    0.7215    0.7200   -1.6676 C   0  0  0  0  0  0  0  0  0  0  0  0
    1.6116    1.6636   -0.8814 C   0  0  0  0  0  0  0  0  0  0  0  0
   -0.2860    1.1803   -2.4751 C   0  0  0  0  0  0  0  0  0  0  0  0
   -0.8293    2.5973   -2.2359 C   0  0  1  0  0  0  0  0  0  0  0  0
   -0.2739    3.5033   -3.1574 O   0  0  0  0  0  0  0  0  0  0  0  0
   -2.3437    2.7037   -2.1686 C   0  0  0  0  0  0  0  0  0  0  0  0
   -2.8783    3.4748   -2.9571 O   0  0  0  0  0  0  0  0  0  0  0  0
   -3.2222    2.0438   -1.0668 C   0  0  2  0  0  0  0  0  0  0  0  0
   -4.6605    1.9047   -1.6871 C   0  0  0  0  0  0  0  0  0  0  0  0
   -0.9535    0.1561   -3.4269 C   0  0  0  0  0  0  0  0  0  0  0  0
   -2.0589    0.7189   -4.3690 C   0  0  0  0  0  0  0  0  0  0  0  0
    0.1387   -0.3853   -4.4275 C   0  0  0  0  0  0  0  0  0  0  0  0
   -7.7431    4.8580    2.8630 H   0  0  0  0  0  0  0  0  0  0  0  0
   -6.1558    4.0065    2.9766 H   0  0  0  0  0  0  0  0  0  0  0  0
   -6.2120    5.7827    2.6198 H   0  0  0  0  0  0  0  0  0  0  0  0
   -7.3723    5.2987    0.4429 H   0  0  0  0  0  0  0  0  0  0  0  0
   -7.2995    3.5345    0.7972 H   0  0  0  0  0  0  0  0  0  0  0  0
   -2.9063    4.0820   -0.2225 H   0  0  0  0  0  0  0  0  0  0  0  0
   -1.3522    2.7082    1.0189 H   0  0  0  0  0  0  0  0  0  0  0  0
   -2.5220    3.5199    2.1005 H   0  0  0  0  0  0  0  0  0  0  0  0
   -2.1635    1.1567    2.8222 H   0  0  0  0  0  0  0  0  0  0  0  0
   -4.5785   -0.7090    2.0386 H   0  0  0  0  0  0  0  0  0  0  0  0
   -5.1474    0.3970    0.7202 H   0  0  0  0  0  0  0  0  0  0  0  0
    0.2877   -2.0293    3.2795 H   0  0  0  0  0  0  0  0  0  0  0  0
   -1.2370   -2.8657    2.8028 H   0  0  0  0  0  0  0  0  0  0  0  0
    0.1555   -2.8273    1.6550 H   0  0  0  0  0  0  0  0  0  0  0  0
   -1.5481    0.7761   -0.4628 H   0  0  0  0  0  0  0  0  0  0  0  0
   -3.5645   -0.3586   -2.3338 H   0  0  0  0  0  0  0  0  0  0  0  0
   -7.0257   -3.1336   -0.1043 H   0  0  0  0  0  0  0  0  0  0  0  0
   -7.5344   -5.0144    1.4001 H   0  0  0  0  0  0  0  0  0  0  0  0
   -5.7043   -6.2422    2.5330 H   0  0  0  0  0  0  0  0  0  0  0  0
   -3.3463   -5.5813    2.1527 H   0  0  0  0  0  0  0  0  0  0  0  0
   -2.8063   -3.7098    0.6517 H   0  0  0  0  0  0  0  0  0  0  0  0
   -2.2009   -2.8236   -2.8635 H   0  0  0  0  0  0  0  0  0  0  0  0
   -0.0752   -2.6070   -1.9925 H   0  0  0  0  0  0  0  0  0  0  0  0
   -0.7145   -1.7795   -0.5944 H   0  0  0  0  0  0  0  0  0  0  0  0
    1.6428   -1.0578   -2.3883 H   0  0  0  0  0  0  0  0  0  0  0  0
    3.8660   -3.3213    0.9889 H   0  0  0  0  0  0  0  0  0  0  0  0
    2.5189   -1.1036    2.1986 H   0  0  0  0  0  0  0  0  0  0  0  0
    4.1650   -0.2666    0.6529 H   0  0  0  0  0  0  0  0  0  0  0  0
    5.5794   -2.1565    2.4385 H   0  0  0  0  0  0  0  0  0  0  0  0
    9.0920    1.0222    1.2400 H   0  0  0  0  0  0  0  0  0  0  0  0
    9.8961   -0.4849    1.8065 H   0  0  0  0  0  0  0  0  0  0  0  0
   10.4551    1.1258    2.3990 H   0  0  0  0  0  0  0  0  0  0  0  0
    8.8436    2.4785    4.0295 H   0  0  0  0  0  0  0  0  0  0  0  0
    7.5581    2.3118    2.7920 H   0  0  0  0  0  0  0  0  0  0  0  0
    7.2628    1.7256    4.4678 H   0  0  0  0  0  0  0  0  0  0  0  0
   10.1732    0.5066    4.8076 H   0  0  0  0  0  0  0  0  0  0  0  0
    9.7233   -1.1586    4.2768 H   0  0  0  0  0  0  0  0  0  0  0  0
    8.6343   -0.2439    5.3782 H   0  0  0  0  0  0  0  0  0  0  0  0
    4.4355   -0.0598   -1.9711 H   0  0  0  0  0  0  0  0  0  0  0  0
    5.9833   -1.2967   -3.7747 H   0  0  0  0  0  0  0  0  0  0  0  0
    7.1906   -3.2923   -2.4852 H   0  0  0  0  0  0  0  0  0  0  0  0
    1.8589    2.5607   -1.4873 H   0  0  0  0  0  0  0  0  0  0  0  0
    2.5777    1.1857   -0.6219 H   0  0  0  0  0  0  0  0  0  0  0  0
    1.1077    1.9683    0.0594 H   0  0  0  0  0  0  0  0  0  0  0  0
   -0.5204    2.9594   -1.2374 H   0  0  0  0  0  0  0  0  0  0  0  0
   -0.4905    3.1856   -4.0698 H   0  0  0  0  0  0  0  0  0  0  0  0
   -5.0949    2.9074   -1.8859 H   0  0  0  0  0  0  0  0  0  0  0  0
   -5.3818    1.3835   -1.0484 H   0  0  0  0  0  0  0  0  0  0  0  0
   -4.6881    1.4038   -2.6676 H   0  0  0  0  0  0  0  0  0  0  0  0
   -2.9639    1.0575   -3.8716 H   0  0  0  0  0  0  0  0  0  0  0  0
   -2.4147   -0.0736   -5.0628 H   0  0  0  0  0  0  0  0  0  0  0  0
   -1.6709    1.5461   -4.9962 H   0  0  0  0  0  0  0  0  0  0  0  0
    0.4494   -1.4255   -4.2034 H   0  0  0  0  0  0  0  0  0  0  0  0
    1.0438    0.2603   -4.4374 H   0  0  0  0  0  0  0  0  0  0  0  0
   -0.2039   -0.4322   -5.4846 H   0  0  0  0  0  0  0  0  0  0  0  0
  1  2  1  0
  2  3  1  0
  3  4  2  0
  3  5  1  0
  5  6  1  0
  6  7  1  0
  7  8  1  0
  8  9  1  0
  9 10  1  0
 10 11  1  0
 11 12  1  1
 12 13  1  0
 13 14  1  0
 13 15  2  0
 11 16  1  0
 16 17  1  0
 17 18  1  0
 18 19  1  0
 19 20  2  0
 19 21  1  0
 21 22  2  0
 22 23  1  0
 23 24  2  0
 24 25  1  0
 25 26  2  0
 17 27  1  0
 27 28  1  6
 27 29  1  0
 29 30  1  0
 30 31  1  0
 31 32  1  0
 32 33  2  0
 32 34  1  0
 34 35  1  0
 34 36  1  0
 36 37  1  0
 37 38  1  0
 38 39  2  0
 38 40  1  0
 40 41  1  0
 41 42  1  0
 41 43  1  0
 41 44  1  0
 36 45  1  0
 45 46  2  0
 46 47  1  0
 47 48  2  0
 48 49  1  0
 30 50  1  0
 50 51  1  0
 50 52  2  0
 52 53  1  0
 53 54  1  0
 53 55  1  0
 55 56  2  0
 55 57  1  0
 57 58  1  6
 52 59  1  0
 59 60  1  0
 59 61  1  0
 57  6  1  0
 11  8  1  0
 57 16  1  0
 26 21  1  0
 59 27  1  0
 49 45  1  0
  1 62  1  0
  1 63  1  0
  1 64  1  0
  2 65  1  0
  2 66  1  0
  6 67  1  6
  7 68  1  0
  7 69  1  0
  8 70  1  1
 10 71  1  0
 10 72  1  0
 14 73  1  0
 14 74  1  0
 14 75  1  0
 16 76  1  1
 17 77  1  6
 22 78  1  0
 23 79  1  0
 24 80  1  0
 25 81  1  0
 26 82  1  0
 28 83  1  0
 29 84  1  0
 29 85  1  0
 30 86  1  6
 34 87  1  1
 35 88  1  0
 36 89  1  6
 37 90  1  0
 42 91  1  0
 42 92  1  0
 42 93  1  0
 43 94  1  0
 43 95  1  0
 43 96  1  0
 44 97  1  0
 44 98  1  0
 44 99  1  0
 46100  1  0
 47101  1  0
 48102  1  0
 51103  1  0
 51104  1  0
 51105  1  0
 53106  1  1
 54107  1  0
 58108  1  0
 58109  1  0
 58110  1  0
 60111  1  0
 60112  1  0
 60113  1  0
 61114  1  0
 61115  1  0
 61116  1  0
M  END
$$$$
