
     RDKit          3D

197197  0  0  0  0  0  0  0  0999 V2000
   -3.2730    8.1621    0.2407 C   0  0  0  0  0  0  0  0  0  0  0  0
   -4.5631    7.4572    0.5229 C   0  0  0  0  0  0  0  0  0  0  0  0
   -4.7685    6.8235    1.6864 C   0  0  0  0  0  0  0  0  0  0  0  0
   -6.0824    6.1561    2.0040 C   0  0  0  0  0  0  0  0  0  0  0  0
   -6.1779    4.6953    1.5018 C   0  0  1  0  0  0  0  0  0  0  0  0
   -6.1597    4.6304   -0.0345 C   0  0  0  0  0  0  0  0  0  0  0  0
   -5.1588    3.7878    2.1872 C   0  0  0  0  0  0  0  0  0  0  0  0
   -5.0626    3.8527    3.4058 O   0  0  0  0  0  0  0  0  0  0  0  0
   -4.3458    2.7325    1.4396 C   0  0  2  0  0  0  0  0  0  0  0  0
   -5.2040    1.6101    1.0056 N   0  0  0  0  0  0  0  0  0  0  0  0
   -6.2629    1.0773    1.8709 C   0  0  0  0  0  0  0  0  0  0  0  0
   -5.0981    1.0673   -0.3241 C   0  0  0  0  0  0  0  0  0  0  0  0
   -6.1029    1.1341   -1.0817 O   0  0  0  0  0  0  0  0  0  0  0  0
   -3.8509    0.3208   -0.7773 C   0  0  2  0  0  0  0  0  0  0  0  0
   -2.6640    1.2425   -1.2062 C   0  0  0  0  0  0  0  0  0  0  0  0
   -3.0055    2.2881   -2.2809 C   0  0  0  0  0  0  0  0  0  0  0  0
   -1.4327    0.4252   -1.6244 C   0  0  0  0  0  0  0  0  0  0  0  0
   -4.1686   -0.7192   -1.7858 N   0  0  0  0  0  0  0  0  0  0  0  0
   -4.6064   -0.3572   -3.1428 C   0  0  0  0  0  0  0  0  0  0  0  0
   -3.7769   -2.0971   -1.5878 C   0  0  0  0  0  0  0  0  0  0  0  0
   -3.1257   -2.6709   -2.5028 O   0  0  0  0  0  0  0  0  0  0  0  0
   -4.1893   -2.9344   -0.3830 C   0  0  2  0  0  0  0  0  0  0  0  0
   -5.6536   -2.6882    0.0879 C   0  0  0  0  0  0  0  0  0  0  0  0
   -6.7261   -3.5142   -0.6679 C   0  0  0  0  0  0  0  0  0  0  0  0
   -6.8722   -3.0879   -2.1316 C   0  0  0  0  0  0  0  0  0  0  0  0
   -8.0818   -3.3865    0.0418 C   0  0  0  0  0  0  0  0  0  0  0  0
   -3.1854   -2.8471    0.7142 N   0  0  0  0  0  0  0  0  0  0  0  0
   -3.3980   -2.0212    1.9180 C   0  0  0  0  0  0  0  0  0  0  0  0
   -1.8906   -3.4968    0.6169 C   0  0  0  0  0  0  0  0  0  0  0  0
   -0.9024   -2.9424    1.1726 O   0  0  0  0  0  0  0  0  0  0  0  0
   -1.6592   -4.7898   -0.1634 C   0  0  2  0  0  0  0  0  0  0  0  0
   -2.4843   -6.0356    0.2930 C   0  0  0  0  0  0  0  0  0  0  0  0
   -2.3751   -6.6271    1.7272 C   0  0  0  0  0  0  0  0  0  0  0  0
   -1.1450   -7.5214    1.9640 C   0  0  0  0  0  0  0  0  0  0  0  0
   -2.5816   -5.6076    2.8505 C   0  0  0  0  0  0  0  0  0  0  0  0
   -0.2220   -5.0991   -0.3467 N   0  0  0  0  0  0  0  0  0  0  0  0
    0.7283   -5.2244    0.7607 C   0  0  0  0  0  0  0  0  0  0  0  0
    0.2858   -5.3460   -1.6686 C   0  0  0  0  0  0  0  0  0  0  0  0
    0.4898   -6.5349   -2.0330 O   0  0  0  0  0  0  0  0  0  0  0  0
    0.5801   -4.2194   -2.6379 C   0  0  1  0  0  0  0  0  0  0  0  0
    0.3800   -2.8221   -2.0410 C   0  0  0  0  0  0  0  0  0  0  0  0
    1.9413   -4.3292   -3.1750 N   0  0  0  0  0  0  0  0  0  0  0  0
    3.1163   -4.2446   -2.3487 C   0  0  0  0  0  0  0  0  0  0  0  0
    3.1751   -4.9217   -1.2889 O   0  0  0  0  0  0  0  0  0  0  0  0
    4.2557   -3.3032   -2.6712 C   0  0  2  0  0  0  0  0  0  0  0  0
    4.2478   -2.8294   -4.1274 C   0  0  0  0  0  0  0  0  0  0  0  0
    5.5350   -3.9635   -2.3928 N   0  0  0  0  0  0  0  0  0  0  0  0
    6.3935   -3.7035   -1.2665 C   0  0  0  0  0  0  0  0  0  0  0  0
    7.3525   -4.4971   -1.0608 O   0  0  0  0  0  0  0  0  0  0  0  0
    6.1734   -2.5370   -0.3101 C   0  0  2  0  0  0  0  0  0  0  0  0
    7.4429   -2.2052    0.5197 C   0  0  0  0  0  0  0  0  0  0  0  0
    8.5461   -1.5058   -0.3129 C   0  0  0  0  0  0  0  0  0  0  0  0
    8.2767    0.0015   -0.4413 C   0  0  0  0  0  0  0  0  0  0  0  0
    9.9229   -1.7310    0.3246 C   0  0  0  0  0  0  0  0  0  0  0  0
    5.0443   -2.8211    0.5925 N   0  0  0  0  0  0  0  0  0  0  0  0
    5.0173   -4.0205    1.4344 C   0  0  0  0  0  0  0  0  0  0  0  0
    3.9718   -1.8768    0.7415 C   0  0  0  0  0  0  0  0  0  0  0  0
    2.7921   -2.2515    0.5177 O   0  0  0  0  0  0  0  0  0  0  0  0
    4.2322   -0.4761    1.2504 C   0  0  1  0  0  0  0  0  0  0  0  0
    4.2821    0.4962    0.1459 N   0  0  0  0  0  0  0  0  0  0  0  0
    3.1759    0.8090   -0.7239 C   0  0  0  0  0  0  0  0  0  0  0  0
    2.2972   -0.0617   -0.9622 O   0  0  0  0  0  0  0  0  0  0  0  0
    3.0285    2.1754   -1.3627 C   0  0  2  0  0  0  0  0  0  0  0  0
    3.7699    2.3498   -2.7216 C   0  0  0  0  0  0  0  0  0  0  0  0
    5.2657    1.9330   -2.7827 C   0  0  0  0  0  0  0  0  0  0  0  0
    5.4172    0.4658   -3.2063 C   0  0  0  0  0  0  0  0  0  0  0  0
    6.0321    2.8208   -3.7738 C   0  0  0  0  0  0  0  0  0  0  0  0
    3.2470    3.2637   -0.3742 N   0  0  0  0  0  0  0  0  0  0  0  0
    4.5206    4.0012   -0.3100 C   0  0  0  0  0  0  0  0  0  0  0  0
    2.2661    3.5205    0.6703 C   0  0  0  0  0  0  0  0  0  0  0  0
    2.5917    4.2105    1.6754 O   0  0  0  0  0  0  0  0  0  0  0  0
    0.8256    3.0707    0.5818 C   0  0  0  0  0  0  0  0  0  0  0  0
   -0.0221    4.1308    0.0082 N   0  0  0  0  0  0  0  0  0  0  0  0
    0.3239    4.6416   -1.3271 C   0  0  0  0  0  0  0  0  0  0  0  0
   -1.3525    4.4128    0.5129 C   0  0  0  0  0  0  0  0  0  0  0  0
   -2.2374    4.8085   -0.2948 O   0  0  0  0  0  0  0  0  0  0  0  0
   -1.7398    4.3367    1.9807 C   0  0  1  0  0  0  0  0  0  0  0  0
   -1.9436    2.9403    2.3968 N   0  0  0  0  0  0  0  0  0  0  0  0
   -3.1854    2.2212    2.2730 C   0  0  0  0  0  0  0  0  0  0  0  0
   -3.3219    1.1456    2.9158 O   0  0  0  0  0  0  0  0  0  0  0  0
   -0.7480    5.0780    2.9265 C   0  0  0  0  0  0  0  0  0  0  0  0
   -0.4997    6.5274    2.4766 C   0  0  0  0  0  0  0  0  0  0  0  0
   -1.2772    5.0854    4.3708 C   0  0  0  0  0  0  0  0  0  0  0  0
    3.2236   -0.0211    2.3455 C   0  0  0  0  0  0  0  0  0  0  0  0
    3.0350   -1.0810    3.4471 C   0  0  0  0  0  0  0  0  0  0  0  0
    3.6994    1.2862    2.9998 C   0  0  0  0  0  0  0  0  0  0  0  0
   -3.0821    8.9322    1.0177 H   0  0  0  0  0  0  0  0  0  0  0  0
   -3.3272    8.6583   -0.7507 H   0  0  0  0  0  0  0  0  0  0  0  0
   -2.4366    7.4343    0.2276 H   0  0  0  0  0  0  0  0  0  0  0  0
   -5.3459    7.4826   -0.2300 H   0  0  0  0  0  0  0  0  0  0  0  0
   -3.9988    6.8399    2.4525 H   0  0  0  0  0  0  0  0  0  0  0  0
   -6.9206    6.7556    1.5847 H   0  0  0  0  0  0  0  0  0  0  0  0
   -6.2208    6.1696    3.1068 H   0  0  0  0  0  0  0  0  0  0  0  0
   -7.1787    4.3249    1.8161 H   0  0  0  0  0  0  0  0  0  0  0  0
   -5.1610    4.8922   -0.4405 H   0  0  0  0  0  0  0  0  0  0  0  0
   -6.4393    3.6168   -0.3799 H   0  0  0  0  0  0  0  0  0  0  0  0
   -6.9067    5.3364   -0.4555 H   0  0  0  0  0  0  0  0  0  0  0  0
   -3.9245    3.2171    0.5440 H   0  0  0  0  0  0  0  0  0  0  0  0
   -6.1320    1.4077    2.9220 H   0  0  0  0  0  0  0  0  0  0  0  0
   -7.2527    1.4213    1.5042 H   0  0  0  0  0  0  0  0  0  0  0  0
   -6.2420   -0.0309    1.8640 H   0  0  0  0  0  0  0  0  0  0  0  0
   -3.4834   -0.1855    0.1271 H   0  0  0  0  0  0  0  0  0  0  0  0
   -2.3449    1.8069   -0.3084 H   0  0  0  0  0  0  0  0  0  0  0  0
   -3.9617    2.8027   -2.0534 H   0  0  0  0  0  0  0  0  0  0  0  0
   -3.0527    1.8388   -3.2921 H   0  0  0  0  0  0  0  0  0  0  0  0
   -2.2091    3.0591   -2.3138 H   0  0  0  0  0  0  0  0  0  0  0  0
   -0.5734    1.1006   -1.8215 H   0  0  0  0  0  0  0  0  0  0  0  0
   -1.6328   -0.1574   -2.5471 H   0  0  0  0  0  0  0  0  0  0  0  0
   -1.1431   -0.2741   -0.8109 H   0  0  0  0  0  0  0  0  0  0  0  0
   -3.7536   -0.4346   -3.8493 H   0  0  0  0  0  0  0  0  0  0  0  0
   -5.0167    0.6688   -3.1918 H   0  0  0  0  0  0  0  0  0  0  0  0
   -5.4033   -1.0445   -3.4860 H   0  0  0  0  0  0  0  0  0  0  0  0
   -4.1982   -3.9767   -0.7419 H   0  0  0  0  0  0  0  0  0  0  0  0
   -5.9080   -1.6100    0.0437 H   0  0  0  0  0  0  0  0  0  0  0  0
   -5.7286   -3.0061    1.1503 H   0  0  0  0  0  0  0  0  0  0  0  0
   -6.4396   -4.5892   -0.6439 H   0  0  0  0  0  0  0  0  0  0  0  0
   -5.9406   -3.3006   -2.6931 H   0  0  0  0  0  0  0  0  0  0  0  0
   -7.1179   -2.0068   -2.1963 H   0  0  0  0  0  0  0  0  0  0  0  0
   -7.6866   -3.6646   -2.6198 H   0  0  0  0  0  0  0  0  0  0  0  0
   -8.0062   -3.7530    1.0878 H   0  0  0  0  0  0  0  0  0  0  0  0
   -8.8494   -3.9992   -0.4777 H   0  0  0  0  0  0  0  0  0  0  0  0
   -8.4172   -2.3268    0.0566 H   0  0  0  0  0  0  0  0  0  0  0  0
   -2.5603   -1.3038    2.0455 H   0  0  0  0  0  0  0  0  0  0  0  0
   -4.3224   -1.4191    1.8724 H   0  0  0  0  0  0  0  0  0  0  0  0
   -3.4475   -2.6691    2.8163 H   0  0  0  0  0  0  0  0  0  0  0  0
   -2.0559   -4.5730   -1.1763 H   0  0  0  0  0  0  0  0  0  0  0  0
   -2.2777   -6.8532   -0.4321 H   0  0  0  0  0  0  0  0  0  0  0  0
   -3.5587   -5.8130    0.1439 H   0  0  0  0  0  0  0  0  0  0  0  0
   -3.2457   -7.3190    1.8041 H   0  0  0  0  0  0  0  0  0  0  0  0
   -0.3594   -7.0055    2.5492 H   0  0  0  0  0  0  0  0  0  0  0  0
   -0.7173   -7.8890    1.0076 H   0  0  0  0  0  0  0  0  0  0  0  0
   -1.4399   -8.4105    2.5622 H   0  0  0  0  0  0  0  0  0  0  0  0
   -1.7326   -4.9011    2.9233 H   0  0  0  0  0  0  0  0  0  0  0  0
   -2.6722   -6.1350    3.8241 H   0  0  0  0  0  0  0  0  0  0  0  0
   -3.5228   -5.0454    2.6790 H   0  0  0  0  0  0  0  0  0  0  0  0
    1.1842   -6.2365    0.7601 H   0  0  0  0  0  0  0  0  0  0  0  0
    0.2484   -5.0378    1.7369 H   0  0  0  0  0  0  0  0  0  0  0  0
    1.5328   -4.4746    0.6468 H   0  0  0  0  0  0  0  0  0  0  0  0
   -0.1377   -4.3184   -3.4817 H   0  0  0  0  0  0  0  0  0  0  0  0
   -0.6844   -2.6475   -1.8015 H   0  0  0  0  0  0  0  0  0  0  0  0
    0.9773   -2.6986   -1.1192 H   0  0  0  0  0  0  0  0  0  0  0  0
    0.6937   -2.0482   -2.7736 H   0  0  0  0  0  0  0  0  0  0  0  0
    2.0484   -4.3255   -4.2136 H   0  0  0  0  0  0  0  0  0  0  0  0
    4.1272   -2.4079   -2.0354 H   0  0  0  0  0  0  0  0  0  0  0  0
    5.1410   -2.2001   -4.3218 H   0  0  0  0  0  0  0  0  0  0  0  0
    4.2803   -3.6955   -4.8226 H   0  0  0  0  0  0  0  0  0  0  0  0
    3.3417   -2.2196   -4.3314 H   0  0  0  0  0  0  0  0  0  0  0  0
    5.7934   -4.7704   -3.0064 H   0  0  0  0  0  0  0  0  0  0  0  0
    5.9320   -1.6456   -0.9219 H   0  0  0  0  0  0  0  0  0  0  0  0
    7.8366   -3.1420    0.9715 H   0  0  0  0  0  0  0  0  0  0  0  0
    7.1786   -1.5586    1.3817 H   0  0  0  0  0  0  0  0  0  0  0  0
    8.5765   -1.9436   -1.3349 H   0  0  0  0  0  0  0  0  0  0  0  0
    8.2919    0.4903    0.5565 H   0  0  0  0  0  0  0  0  0  0  0  0
    9.0501    0.4751   -1.0827 H   0  0  0  0  0  0  0  0  0  0  0  0
    7.2903    0.1886   -0.9068 H   0  0  0  0  0  0  0  0  0  0  0  0
   10.7119   -1.2277   -0.2743 H   0  0  0  0  0  0  0  0  0  0  0  0
   10.1577   -2.8165    0.3553 H   0  0  0  0  0  0  0  0  0  0  0  0
    9.9453   -1.3287    1.3604 H   0  0  0  0  0  0  0  0  0  0  0  0
    4.9941   -3.7236    2.5042 H   0  0  0  0  0  0  0  0  0  0  0  0
    4.1135   -4.6225    1.2075 H   0  0  0  0  0  0  0  0  0  0  0  0
    5.9127   -4.6542    1.2688 H   0  0  0  0  0  0  0  0  0  0  0  0
    5.2306   -0.4899    1.7353 H   0  0  0  0  0  0  0  0  0  0  0  0
    5.1308    1.0980    0.1055 H   0  0  0  0  0  0  0  0  0  0  0  0
    1.9729    2.2537   -1.6927 H   0  0  0  0  0  0  0  0  0  0  0  0
    3.6492    3.4119   -3.0296 H   0  0  0  0  0  0  0  0  0  0  0  0
    3.2128    1.7787   -3.4989 H   0  0  0  0  0  0  0  0  0  0  0  0
    5.7478    2.0644   -1.7964 H   0  0  0  0  0  0  0  0  0  0  0  0
    5.0061    0.3098   -4.2267 H   0  0  0  0  0  0  0  0  0  0  0  0
    6.4878    0.1707   -3.2097 H   0  0  0  0  0  0  0  0  0  0  0  0
    4.8798   -0.1997   -2.5074 H   0  0  0  0  0  0  0  0  0  0  0  0
    5.9926    3.8833   -3.4538 H   0  0  0  0  0  0  0  0  0  0  0  0
    7.1006    2.5186   -3.8154 H   0  0  0  0  0  0  0  0  0  0  0  0
    5.5952    2.7383   -4.7924 H   0  0  0  0  0  0  0  0  0  0  0  0
    4.4049    4.9585    0.2403 H   0  0  0  0  0  0  0  0  0  0  0  0
    5.2902    3.3945    0.2071 H   0  0  0  0  0  0  0  0  0  0  0  0
    4.8758    4.2893   -1.3158 H   0  0  0  0  0  0  0  0  0  0  0  0
    0.6966    2.1340    0.0108 H   0  0  0  0  0  0  0  0  0  0  0  0
    0.5072    2.8034    1.5999 H   0  0  0  0  0  0  0  0  0  0  0  0
   -0.2434    5.5672   -1.5624 H   0  0  0  0  0  0  0  0  0  0  0  0
    0.1000    3.8717   -2.0942 H   0  0  0  0  0  0  0  0  0  0  0  0
    1.3971    4.9123   -1.3842 H   0  0  0  0  0  0  0  0  0  0  0  0
   -2.7039    4.8718    2.0927 H   0  0  0  0  0  0  0  0  0  0  0  0
   -1.1971    2.4716    2.9579 H   0  0  0  0  0  0  0  0  0  0  0  0
    0.2303    4.5587    2.9382 H   0  0  0  0  0  0  0  0  0  0  0  0
   -1.4490    7.1026    2.4705 H   0  0  0  0  0  0  0  0  0  0  0  0
    0.2113    7.0266    3.1690 H   0  0  0  0  0  0  0  0  0  0  0  0
   -0.0496    6.5570    1.4626 H   0  0  0  0  0  0  0  0  0  0  0  0
   -0.5659    5.6166    5.0388 H   0  0  0  0  0  0  0  0  0  0  0  0
   -1.3882    4.0508    4.7566 H   0  0  0  0  0  0  0  0  0  0  0  0
   -2.2641    5.5938    4.4245 H   0  0  0  0  0  0  0  0  0  0  0  0
    2.2331    0.1657    1.8745 H   0  0  0  0  0  0  0  0  0  0  0  0
    2.5308   -1.9855    3.0497 H   0  0  0  0  0  0  0  0  0  0  0  0
    4.0160   -1.3759    3.8778 H   0  0  0  0  0  0  0  0  0  0  0  0
    2.3932   -0.6806    4.2610 H   0  0  0  0  0  0  0  0  0  0  0  0
    4.6042    1.1074    3.6198 H   0  0  0  0  0  0  0  0  0  0  0  0
    2.8981    1.7047    3.6455 H   0  0  0  0  0  0  0  0  0  0  0  0
    3.9592    2.0424    2.2352 H   0  0  0  0  0  0  0  0  0  0  0  0
  1  2  1  0
  2  3  2  0
  3  4  1  0
  4  5  1  0
  5  6  1  0
  5  7  1  0
  7  8  2  0
  7  9  1  0
  9 10  1  0
 10 11  1  0
 10 12  1  0
 12 13  2  0
 12 14  1  0
 14 15  1  0
 15 16  1  0
 15 17  1  0
 14 18  1  0
 18 19  1  0
 18 20  1  0
 20 21  2  0
 20 22  1  0
 22 23  1  0
 23 24  1  0
 24 25  1  0
 24 26  1  0
 22 27  1  0
 27 28  1  0
 27 29  1  0
 29 30  2  0
 29 31  1  0
 31 32  1  0
 32 33  1  0
 33 34  1  0
 33 35  1  0
 31 36  1  0
 36 37  1  0
 36 38  1  0
 38 39  2  0
 38 40  1  0
 40 41  1  0
 40 42  1  0
 42 43  1  0
 43 44  2  0
 43 45  1  0
 45 46  1  0
 45 47  1  0
 47 48  1  0
 48 49  2  0
 48 50  1  0
 50 51  1  0
 51 52  1  0
 52 53  1  0
 52 54  1  0
 50 55  1  0
 55 56  1  0
 55 57  1  0
 57 58  2  0
 57 59  1  0
 59 60  1  0
 60 61  1  0
 61 62  2  0
 61 63  1  0
 63 64  1  0
 64 65  1  0
 65 66  1  0
 65 67  1  0
 63 68  1  0
 68 69  1  0
 68 70  1  0
 70 71  2  0
 70 72  1  0
 72 73  1  0
 73 74  1  0
 73 75  1  0
 75 76  2  0
 75 77  1  0
 77 78  1  0
 78 79  1  0
 79 80  2  0
 77 81  1  0
 81 82  1  0
 81 83  1  0
 59 84  1  0
 84 85  1  0
 84 86  1  0
 79  9  1  0
  1 87  1  0
  1 88  1  0
  1 89  1  0
  2 90  1  0
  3 91  1  0
  4 92  1  0
  4 93  1  0
  5 94  1  1
  6 95  1  0
  6 96  1  0
  6 97  1  0
  9 98  1  6
 11 99  1  0
 11100  1  0
 11101  1  0
 14102  1  1
 15103  1  0
 16104  1  0
 16105  1  0
 16106  1  0
 17107  1  0
 17108  1  0
 17109  1  0
 19110  1  0
 19111  1  0
 19112  1  0
 22113  1  6
 23114  1  0
 23115  1  0
 24116  1  0
 25117  1  0
 25118  1  0
 25119  1  0
 26120  1  0
 26121  1  0
 26122  1  0
 28123  1  0
 28124  1  0
 28125  1  0
 31126  1  6
 32127  1  0
 32128  1  0
 33129  1  0
 34130  1  0
 34131  1  0
 34132  1  0
 35133  1  0
 35134  1  0
 35135  1  0
 37136  1  0
 37137  1  0
 37138  1  0
 40139  1  6
 41140  1  0
 41141  1  0
 41142  1  0
 42143  1  0
 45144  1  1
 46145  1  0
 46146  1  0
 46147  1  0
 47148  1  0
 50149  1  6
 51150  1  0
 51151  1  0
 52152  1  0
 53153  1  0
 53154  1  0
 53155  1  0
 54156  1  0
 54157  1  0
 54158  1  0
 56159  1  0
 56160  1  0
 56161  1  0
 59162  1  1
 60163  1  0
 63164  1  6
 64165  1  0
 64166  1  0
 65167  1  0
 66168  1  0
 66169  1  0
 66170  1  0
 67171  1  0
 67172  1  0
 67173  1  0
 69174  1  0
 69175  1  0
 69176  1  0
 72177  1  0
 72178  1  0
 74179  1  0
 74180  1  0
 74181  1  0
 77182  1  6
 78183  1  0
 81184  1  0
 82185  1  0
 82186  1  0
 82187  1  0
 83188  1  0
 83189  1  0
 83190  1  0
 84191  1  0
 85192  1  0
 85193  1  0
 85194  1  0
 86195  1  0
 86196  1  0
 86197  1  0
M  END
$$$$
