
     RDKit          3D

 52 51  0  0  0  0  0  0  0  0999 V2000
   -0.8746   -2.8845    1.7360 C   0  0  2  0  0  0  0  0  0  0  0  0
   -0.4872   -4.1554    1.2817 O   0  0  0  0  0  0  0  0  0  0  0  0
   -1.4036   -2.0381    0.5682 C   0  0  0  0  0  0  0  0  0  0  0  0
   -2.7828   -2.4802    0.1519 C   0  0  0  0  0  0  0  0  0  0  0  0
   -2.9322   -3.5739   -0.3727 O   0  0  0  0  0  0  0  0  0  0  0  0
   -3.9791   -1.5866    0.3547 C   0  0  0  0  0  0  0  0  0  0  0  0
   -4.4867   -1.0079   -0.9727 C   0  0  0  0  0  0  0  0  0  0  0  0
   -3.4858   -0.0200   -1.5910 C   0  0  0  0  0  0  0  0  0  0  0  0
   -4.0428    0.5939   -2.8782 C   0  0  0  0  0  0  0  0  0  0  0  0
   -3.0561    1.5496   -3.4703 C   0  0  0  0  0  0  0  0  0  0  0  0
   -3.0546    2.8815   -3.0683 O   0  0  0  0  0  0  0  0  0  0  0  0
   -2.2008    1.1410   -4.3007 O   0  0  0  0  0  0  0  0  0  0  0  0
    0.2648   -2.2021    2.4678 C   0  0  0  0  0  0  0  0  0  0  0  0
    1.5016   -1.9581    1.9890 C   0  0  0  0  0  0  0  0  0  0  0  0
    1.9915   -2.2506    0.5922 C   0  0  0  0  0  0  0  0  0  0  0  0
    1.8334   -1.0612   -0.3245 C   0  0  0  0  0  0  0  0  0  0  0  0
    2.5246    0.0914   -0.2356 C   0  0  0  0  0  0  0  0  0  0  0  0
    3.5335    0.4238    0.8369 C   0  0  0  0  0  0  0  0  0  0  0  0
    2.9422    1.3562    1.9062 C   0  0  0  0  0  0  0  0  0  0  0  0
    2.5608    2.7566    1.3892 C   0  0  0  0  0  0  0  0  0  0  0  0
    3.7731    3.6098    0.9595 C   0  0  0  0  0  0  0  0  0  0  0  0
    3.8912    3.7313   -0.5595 C   0  0  0  0  0  0  0  0  0  0  0  0
   -1.7069   -3.0001    2.4706 H   0  0  0  0  0  0  0  0  0  0  0  0
   -0.3911   -4.7307    2.0854 H   0  0  0  0  0  0  0  0  0  0  0  0
   -0.7387   -2.1351   -0.3107 H   0  0  0  0  0  0  0  0  0  0  0  0
   -1.4234   -0.9654    0.8609 H   0  0  0  0  0  0  0  0  0  0  0  0
   -4.7907   -2.1820    0.8259 H   0  0  0  0  0  0  0  0  0  0  0  0
   -3.7377   -0.7574    1.0545 H   0  0  0  0  0  0  0  0  0  0  0  0
   -4.6946   -1.8346   -1.6875 H   0  0  0  0  0  0  0  0  0  0  0  0
   -5.4451   -0.4789   -0.7773 H   0  0  0  0  0  0  0  0  0  0  0  0
   -2.5355   -0.5491   -1.8234 H   0  0  0  0  0  0  0  0  0  0  0  0
   -3.2688    0.7909   -0.8607 H   0  0  0  0  0  0  0  0  0  0  0  0
   -4.2672   -0.2091   -3.6142 H   0  0  0  0  0  0  0  0  0  0  0  0
   -4.9869    1.1381   -2.6590 H   0  0  0  0  0  0  0  0  0  0  0  0
   -2.3817    3.5375   -3.4467 H   0  0  0  0  0  0  0  0  0  0  0  0
    0.0737   -1.9220    3.5002 H   0  0  0  0  0  0  0  0  0  0  0  0
    2.2128   -1.5059    2.6726 H   0  0  0  0  0  0  0  0  0  0  0  0
    1.4599   -3.1201    0.1585 H   0  0  0  0  0  0  0  0  0  0  0  0
    3.0621   -2.5416    0.6347 H   0  0  0  0  0  0  0  0  0  0  0  0
    1.1526   -1.1649   -1.1633 H   0  0  0  0  0  0  0  0  0  0  0  0
    2.3222    0.8560   -0.9797 H   0  0  0  0  0  0  0  0  0  0  0  0
    3.9168   -0.4928    1.3282 H   0  0  0  0  0  0  0  0  0  0  0  0
    4.4179    0.8987    0.3661 H   0  0  0  0  0  0  0  0  0  0  0  0
    3.6749    1.4619    2.7357 H   0  0  0  0  0  0  0  0  0  0  0  0
    2.0332    0.8849    2.3375 H   0  0  0  0  0  0  0  0  0  0  0  0
    2.0499    3.2838    2.2246 H   0  0  0  0  0  0  0  0  0  0  0  0
    1.8083    2.6769    0.5751 H   0  0  0  0  0  0  0  0  0  0  0  0
    3.6565    4.6355    1.3728 H   0  0  0  0  0  0  0  0  0  0  0  0
    4.7206    3.2006    1.3726 H   0  0  0  0  0  0  0  0  0  0  0  0
    4.0254    2.7364   -1.0293 H   0  0  0  0  0  0  0  0  0  0  0  0
    4.7699    4.3609   -0.8134 H   0  0  0  0  0  0  0  0  0  0  0  0
    2.9812    4.2113   -0.9783 H   0  0  0  0  0  0  0  0  0  0  0  0
  1  2  1  0
  1  3  1  0
  3  4  1  0
  4  5  2  0
  4  6  1  0
  6  7  1  0
  7  8  1  0
  8  9  1  0
  9 10  1  0
 10 11  1  0
 10 12  2  0
  1 13  1  0
 13 14  2  0
 14 15  1  0
 15 16  1  0
 16 17  2  0
 17 18  1  0
 18 19  1  0
 19 20  1  0
 20 21  1  0
 21 22  1  0
  1 23  1  1
  2 24  1  0
  3 25  1  0
  3 26  1  0
  6 27  1  0
  6 28  1  0
  7 29  1  0
  7 30  1  0
  8 31  1  0
  8 32  1  0
  9 33  1  0
  9 34  1  0
 11 35  1  0
 13 36  1  0
 14 37  1  0
 15 38  1  0
 15 39  1  0
 16 40  1  0
 17 41  1  0
 18 42  1  0
 18 43  1  0
 19 44  1  0
 19 45  1  0
 20 46  1  0
 20 47  1  0
 21 48  1  0
 21 49  1  0
 22 50  1  0
 22 51  1  0
 22 52  1  0
M  END
$$$$
