
     RDKit          3D

 36 37  0  0  0  0  0  0  0  0999 V2000
   -6.0360    0.2152    0.5776 C   0  0  0  0  0  0  0  0  0  0  0  0
   -4.5381    0.4137    0.7917 C   0  0  0  0  0  0  0  0  0  0  0  0
   -3.7439   -0.8069    0.3036 C   0  0  0  0  0  0  0  0  0  0  0  0
   -2.2433   -0.7044    0.6216 C   0  0  0  0  0  0  0  0  0  0  0  0
   -1.5163    0.3060   -0.2827 C   0  0  0  0  0  0  0  0  0  0  0  0
   -0.0185    0.4187    0.0436 C   0  0  0  0  0  0  0  0  0  0  0  0
    0.7835   -0.8103   -0.4113 C   0  0  0  0  0  0  0  0  0  0  0  0
    2.2688   -0.5814   -0.2215 C   0  0  0  0  0  0  0  0  0  0  0  0
    3.0175    0.0788   -1.1535 C   0  0  0  0  0  0  0  0  0  0  0  0
    2.4707    0.6019   -2.3300 O   0  0  0  0  0  0  0  0  0  0  0  0
    4.4673    0.2714   -0.9361 C   0  0  0  0  0  0  0  0  0  0  0  0
    5.0894   -0.1793    0.2097 C   0  0  0  0  0  0  0  0  0  0  0  0
    6.7221    0.2040    0.1395 S   0  0  0  0  0  0  0  0  0  0  0  0
    6.5653    0.9395   -1.3739 C   0  0  0  0  0  0  0  0  0  0  0  0
    5.2875    0.8963   -1.8213 N   0  0  0  0  0  0  0  0  0  0  0  0
    4.3513   -0.8613    1.2645 C   0  0  0  0  0  0  0  0  0  0  0  0
    4.9241   -1.2615    2.3127 O   0  0  0  0  0  0  0  0  0  0  0  0
    2.9065   -1.0568    1.0504 C   0  0  0  0  0  0  0  0  0  0  0  0
    2.2174   -1.6172    1.9451 O   0  0  0  0  0  0  0  0  0  0  0  0
   -6.2547    0.0655   -0.5013 H   0  0  0  0  0  0  0  0  0  0  0  0
   -6.5845    1.1143    0.9298 H   0  0  0  0  0  0  0  0  0  0  0  0
   -6.3951   -0.6660    1.1507 H   0  0  0  0  0  0  0  0  0  0  0  0
   -4.2241    1.3226    0.2372 H   0  0  0  0  0  0  0  0  0  0  0  0
   -4.3503    0.5775    1.8752 H   0  0  0  0  0  0  0  0  0  0  0  0
   -3.8897   -0.9422   -0.7907 H   0  0  0  0  0  0  0  0  0  0  0  0
   -4.1395   -1.7150    0.8098 H   0  0  0  0  0  0  0  0  0  0  0  0
   -2.1022   -0.4311    1.6903 H   0  0  0  0  0  0  0  0  0  0  0  0
   -1.8020   -1.7117    0.4706 H   0  0  0  0  0  0  0  0  0  0  0  0
   -1.6487    0.0263   -1.3508 H   0  0  0  0  0  0  0  0  0  0  0  0
   -1.9640    1.3117   -0.1405 H   0  0  0  0  0  0  0  0  0  0  0  0
    0.3760    1.3212   -0.4721 H   0  0  0  0  0  0  0  0  0  0  0  0
    0.1196    0.5749    1.1362 H   0  0  0  0  0  0  0  0  0  0  0  0
    0.5563   -1.0656   -1.4674 H   0  0  0  0  0  0  0  0  0  0  0  0
    0.4686   -1.6968    0.1767 H   0  0  0  0  0  0  0  0  0  0  0  0
    1.4851    0.5892   -2.5544 H   0  0  0  0  0  0  0  0  0  0  0  0
    7.3741    1.3940   -1.9292 H   0  0  0  0  0  0  0  0  0  0  0  0
  1  2  1  0
  2  3  1  0
  3  4  1  0
  4  5  1  0
  5  6  1  0
  6  7  1  0
  7  8  1  0
  8  9  2  0
  9 10  1  0
  9 11  1  0
 11 12  2  0
 12 13  1  0
 13 14  1  0
 14 15  2  0
 12 16  1  0
 16 17  2  0
 16 18  1  0
 18 19  2  0
 18  8  1  0
 15 11  1  0
  1 20  1  0
  1 21  1  0
  1 22  1  0
  2 23  1  0
  2 24  1  0
  3 25  1  0
  3 26  1  0
  4 27  1  0
  4 28  1  0
  5 29  1  0
  5 30  1  0
  6 31  1  0
  6 32  1  0
  7 33  1  0
  7 34  1  0
 10 35  1  0
 14 36  1  0
M  END
$$$$
