
     RDKit          3D

 53 56  0  0  0  0  0  0  0  0999 V2000
   -4.0618   -0.5294    0.6340 C   0  0  1  0  0  0  0  0  0  0  0  0
   -3.3103   -0.5070   -0.7036 C   0  0  0  0  0  0  0  0  0  0  0  0
   -5.4083   -1.7554    0.4867 S   0  0  0  0  0  0  0  0  0  0  0  0
   -5.9845   -1.4219    2.1366 C   0  0  0  0  0  0  0  0  0  0  0  0
   -7.1979   -1.1647    2.3502 O   0  0  0  0  0  0  0  0  0  0  0  0
   -5.0439   -1.4218    3.2059 N   0  0  0  0  0  0  0  0  0  0  0  0
   -3.6688   -1.2456    2.9668 N   0  0  0  0  0  0  0  0  0  0  0  0
   -3.1636   -0.8752    1.8219 C   0  0  0  0  0  0  0  0  0  0  0  0
   -1.7068   -0.6468    1.7725 C   0  0  0  0  0  0  0  0  0  0  0  0
   -0.8240   -1.7102    1.9993 C   0  0  0  0  0  0  0  0  0  0  0  0
    0.5629   -1.5061    1.9455 C   0  0  0  0  0  0  0  0  0  0  0  0
    1.0777   -0.2318    1.6261 C   0  0  0  0  0  0  0  0  0  0  0  0
    0.1820    0.8443    1.4712 C   0  0  0  0  0  0  0  0  0  0  0  0
   -1.1962    0.6364    1.5409 C   0  0  0  0  0  0  0  0  0  0  0  0
    2.5096   -0.0479    1.4741 N   0  0  0  0  0  0  0  0  0  0  0  0
    3.4540   -1.1223    1.8196 C   0  0  0  0  0  0  0  0  0  0  0  0
    2.8239   -2.1666    2.7450 C   0  0  0  0  0  0  0  0  0  0  0  0
    1.4997   -2.6611    2.1648 C   0  0  0  0  0  0  0  0  0  0  0  0
    3.0474    1.0828    0.7622 C   0  0  0  0  0  0  0  0  0  0  0  0
    3.9730    1.7553    1.2927 O   0  0  0  0  0  0  0  0  0  0  0  0
    2.5577    1.4496   -0.5921 C   0  0  0  0  0  0  0  0  0  0  0  0
    1.8479    0.5236   -1.3759 C   0  0  0  0  0  0  0  0  0  0  0  0
    1.3407    0.8859   -2.6382 C   0  0  0  0  0  0  0  0  0  0  0  0
    0.5896   -0.0054   -3.4212 O   0  0  0  0  0  0  0  0  0  0  0  0
    0.2087   -1.3151   -3.0109 C   0  0  0  0  0  0  0  0  0  0  0  0
    1.5802    2.1743   -3.1386 C   0  0  0  0  0  0  0  0  0  0  0  0
    1.0693    2.5046   -4.4039 O   0  0  0  0  0  0  0  0  0  0  0  0
    1.2318    3.7713   -5.0336 C   0  0  0  0  0  0  0  0  0  0  0  0
    2.3160    3.0925   -2.3669 C   0  0  0  0  0  0  0  0  0  0  0  0
    2.7966    2.7329   -1.1065 C   0  0  0  0  0  0  0  0  0  0  0  0
   -4.5058    0.4760    0.8017 H   0  0  0  0  0  0  0  0  0  0  0  0
   -4.0264   -0.3584   -1.5396 H   0  0  0  0  0  0  0  0  0  0  0  0
   -2.5865    0.3321   -0.7410 H   0  0  0  0  0  0  0  0  0  0  0  0
   -2.7706   -1.4652   -0.8635 H   0  0  0  0  0  0  0  0  0  0  0  0
   -5.3815   -1.5007    4.1906 H   0  0  0  0  0  0  0  0  0  0  0  0
   -1.2166   -2.6996    2.2040 H   0  0  0  0  0  0  0  0  0  0  0  0
    0.5441    1.8468    1.2871 H   0  0  0  0  0  0  0  0  0  0  0  0
   -1.8671    1.4763    1.4069 H   0  0  0  0  0  0  0  0  0  0  0  0
    3.7919   -1.6211    0.8848 H   0  0  0  0  0  0  0  0  0  0  0  0
    4.3472   -0.6943    2.3246 H   0  0  0  0  0  0  0  0  0  0  0  0
    2.6489   -1.7179    3.7479 H   0  0  0  0  0  0  0  0  0  0  0  0
    3.5206   -3.0240    2.8655 H   0  0  0  0  0  0  0  0  0  0  0  0
    1.6787   -3.1751    1.1955 H   0  0  0  0  0  0  0  0  0  0  0  0
    1.0524   -3.3933    2.8720 H   0  0  0  0  0  0  0  0  0  0  0  0
    1.6922   -0.4786   -1.0034 H   0  0  0  0  0  0  0  0  0  0  0  0
   -0.3919   -1.2636   -2.0779 H   0  0  0  0  0  0  0  0  0  0  0  0
    1.1106   -1.9427   -2.8508 H   0  0  0  0  0  0  0  0  0  0  0  0
   -0.4097   -1.7788   -3.8063 H   0  0  0  0  0  0  0  0  0  0  0  0
    0.7276    3.7522   -6.0213 H   0  0  0  0  0  0  0  0  0  0  0  0
    0.7691    4.5681   -4.4137 H   0  0  0  0  0  0  0  0  0  0  0  0
    2.3104    3.9849   -5.1892 H   0  0  0  0  0  0  0  0  0  0  0  0
    2.5150    4.0919   -2.7287 H   0  0  0  0  0  0  0  0  0  0  0  0
    3.3446    3.4660   -0.5276 H   0  0  0  0  0  0  0  0  0  0  0  0
  1  2  1  0
  1  3  1  0
  3  4  1  0
  4  5  2  0
  4  6  1  0
  6  7  1  0
  7  8  2  0
  8  9  1  0
  9 10  2  0
 10 11  1  0
 11 12  2  0
 12 13  1  0
 13 14  2  0
 12 15  1  0
 15 16  1  0
 16 17  1  0
 17 18  1  0
 15 19  1  0
 19 20  2  0
 19 21  1  0
 21 22  2  0
 22 23  1  0
 23 24  1  0
 24 25  1  0
 23 26  2  0
 26 27  1  0
 27 28  1  0
 26 29  1  0
 29 30  2  0
  8  1  1  0
 14  9  1  0
 30 21  1  0
 18 11  1  0
  1 31  1  1
  2 32  1  0
  2 33  1  0
  2 34  1  0
  6 35  1  0
 10 36  1  0
 13 37  1  0
 14 38  1  0
 16 39  1  0
 16 40  1  0
 17 41  1  0
 17 42  1  0
 18 43  1  0
 18 44  1  0
 22 45  1  0
 25 46  1  0
 25 47  1  0
 25 48  1  0
 28 49  1  0
 28 50  1  0
 28 51  1  0
 29 52  1  0
 30 53  1  0
M  END
$$$$
