
     RDKit          3D

 27 28  0  0  0  0  0  0  0  0999 V2000
    2.2224    0.5647   -0.4784 C   0  0  1  0  0  0  0  0  0  0  0  0
    2.7716   -0.3496    0.6368 C   0  0  0  0  0  0  0  0  0  0  0  0
    3.6368   -1.3152    0.0995 O   0  0  0  0  0  0  0  0  0  0  0  0
    1.2005   -0.1481   -1.3847 C   0  0  0  0  0  0  0  0  0  0  0  0
   -0.1581   -0.2460   -0.7455 C   0  0  0  0  0  0  0  0  0  0  0  0
   -1.0978   -1.1473   -1.2643 C   0  0  0  0  0  0  0  0  0  0  0  0
   -2.3848   -1.2161   -0.7278 C   0  0  0  0  0  0  0  0  0  0  0  0
   -2.7606   -0.3765    0.3344 C   0  0  0  0  0  0  0  0  0  0  0  0
   -1.8219    0.5367    0.8444 C   0  0  0  0  0  0  0  0  0  0  0  0
   -0.5302    0.6208    0.3006 C   0  0  0  0  0  0  0  0  0  0  0  0
    0.4685    1.5694    0.9221 C   0  0  0  0  0  0  0  0  0  0  0  0
    1.6495    1.8051    0.0748 N   0  0  0  0  0  0  0  0  0  0  0  0
   -4.0847   -0.4494    0.8947 N   0  0  0  0  0  4  0  0  0  0  0  0
   -4.4515    0.3756    1.9334 O   0  0  0  0  0  1  0  0  0  0  0  0
   -4.9217   -1.2612    0.4479 O   0  0  0  0  0  0  0  0  0  0  0  0
    3.0893    0.8517   -1.1151 H   0  0  0  0  0  0  0  0  0  0  0  0
    3.3522    0.2678    1.3548 H   0  0  0  0  0  0  0  0  0  0  0  0
    1.9441   -0.8329    1.2062 H   0  0  0  0  0  0  0  0  0  0  0  0
    3.0914   -2.1235   -0.0860 H   0  0  0  0  0  0  0  0  0  0  0  0
    1.0934    0.4329   -2.3264 H   0  0  0  0  0  0  0  0  0  0  0  0
    1.5705   -1.1584   -1.6625 H   0  0  0  0  0  0  0  0  0  0  0  0
   -0.8332   -1.7978   -2.0890 H   0  0  0  0  0  0  0  0  0  0  0  0
   -3.0871   -1.9258   -1.1459 H   0  0  0  0  0  0  0  0  0  0  0  0
   -2.0905    1.1848    1.6694 H   0  0  0  0  0  0  0  0  0  0  0  0
    0.7915    1.1671    1.9056 H   0  0  0  0  0  0  0  0  0  0  0  0
   -0.0268    2.5451    1.1216 H   0  0  0  0  0  0  0  0  0  0  0  0
    1.3671    2.4261   -0.7206 H   0  0  0  0  0  0  0  0  0  0  0  0
  1  2  1  0
  2  3  1  0
  1  4  1  0
  4  5  1  0
  5  6  2  0
  6  7  1  0
  7  8  2  0
  8  9  1  0
  9 10  2  0
 10 11  1  0
 11 12  1  0
  8 13  1  0
 13 14  1  0
 13 15  2  0
 12  1  1  0
 10  5  1  0
  1 16  1  6
  2 17  1  0
  2 18  1  0
  3 19  1  0
  4 20  1  0
  4 21  1  0
  6 22  1  0
  7 23  1  0
  9 24  1  0
 11 25  1  0
 11 26  1  0
 12 27  1  0
M  CHG  2  13   1  14  -1
M  END
$$$$
