
     RDKit          3D

 27 26  0  0  0  0  0  0  0  0999 V2000
   -4.1052   -0.5665   -0.5247 C   0  0  0  0  0  0  0  0  0  0  0  0
   -3.2119    0.4094    0.2358 C   0  0  0  0  0  0  0  0  0  0  0  0
   -1.7380   -0.0030    0.1461 C   0  0  0  0  0  0  0  0  0  0  0  0
   -0.8434    0.9887    0.9047 C   0  0  0  0  0  0  0  0  0  0  0  0
    0.6266    0.5427    0.9516 C   0  0  0  0  0  0  0  0  0  0  0  0
    1.3255    0.6654   -0.4133 C   0  0  0  0  0  0  0  0  0  0  0  0
    2.8258    0.3571   -0.3175 C   0  0  0  0  0  0  0  0  0  0  0  0
    3.0692   -1.0624   -0.0569 N   0  0  0  0  0  0  0  0  0  0  0  0
    4.3928   -1.5759    0.1139 C   0  0  0  0  0  0  0  0  0  0  0  0
    5.3938   -0.8134    0.0537 O   0  0  0  0  0  0  0  0  0  0  0  0
   -3.8250   -0.5891   -1.5994 H   0  0  0  0  0  0  0  0  0  0  0  0
   -4.0106   -1.5882   -0.0990 H   0  0  0  0  0  0  0  0  0  0  0  0
   -5.1643   -0.2436   -0.4408 H   0  0  0  0  0  0  0  0  0  0  0  0
   -3.3432    1.4266   -0.1936 H   0  0  0  0  0  0  0  0  0  0  0  0
   -3.5313    0.4327    1.3006 H   0  0  0  0  0  0  0  0  0  0  0  0
   -1.4393   -0.0345   -0.9234 H   0  0  0  0  0  0  0  0  0  0  0  0
   -1.6149   -1.0198    0.5799 H   0  0  0  0  0  0  0  0  0  0  0  0
   -0.9172    1.9971    0.4414 H   0  0  0  0  0  0  0  0  0  0  0  0
   -1.2089    1.0723    1.9518 H   0  0  0  0  0  0  0  0  0  0  0  0
    1.1564    1.1905    1.6841 H   0  0  0  0  0  0  0  0  0  0  0  0
    0.6872   -0.5023    1.3250 H   0  0  0  0  0  0  0  0  0  0  0  0
    0.8623   -0.0226   -1.1519 H   0  0  0  0  0  0  0  0  0  0  0  0
    1.2065    1.7045   -0.7906 H   0  0  0  0  0  0  0  0  0  0  0  0
    3.3085    0.6337   -1.2798 H   0  0  0  0  0  0  0  0  0  0  0  0
    3.2859    0.9711    0.4873 H   0  0  0  0  0  0  0  0  0  0  0  0
    2.2738   -1.7385   -0.0090 H   0  0  0  0  0  0  0  0  0  0  0  0
    4.5387   -2.6321    0.2971 H   0  0  0  0  0  0  0  0  0  0  0  0
  1  2  1  0
  2  3  1  0
  3  4  1  0
  4  5  1  0
  5  6  1  0
  6  7  1  0
  7  8  1  0
  8  9  1  0
  9 10  2  0
  1 11  1  0
  1 12  1  0
  1 13  1  0
  2 14  1  0
  2 15  1  0
  3 16  1  0
  3 17  1  0
  4 18  1  0
  4 19  1  0
  5 20  1  0
  5 21  1  0
  6 22  1  0
  6 23  1  0
  7 24  1  0
  7 25  1  0
  8 26  1  0
  9 27  1  0
M  END
$$$$
