
     RDKit          3D

 19 17  0  0  0  0  0  0  0  0999 V2000
    0.0000    0.0000    0.0000 Ga  0  0  0  0  0 15  0  0  0  0  0  0
   -0.3987   -0.8774    1.6666 O   0  0  0  0  0  0  0  0  0  0  0  0
    0.0049   -0.3742    0.4119 C   0  0  0  0  0  0  0  0  0  0  0  0
   -0.7129    0.9826    0.1502 C   0  0  0  0  0  0  0  0  0  0  0  0
   -2.2100    0.8722    0.1764 C   0  0  0  0  0  0  0  0  0  0  0  0
   -2.9017    1.0750    1.3641 O   0  0  0  0  0  1  0  0  0  0  0  0
   -2.8439    0.5726   -0.8695 O   0  0  0  0  0  0  0  0  0  0  0  0
    1.5371   -0.1599    0.4933 C   0  0  0  0  0  0  0  0  0  0  0  0
    2.1463    0.3873   -0.7667 C   0  0  0  0  0  0  0  0  0  0  0  0
    2.2873    1.7593   -0.9336 O   0  0  0  0  0  1  0  0  0  0  0  0
    2.5188   -0.3926   -1.6824 O   0  0  0  0  0  0  0  0  0  0  0  0
   -0.2976   -1.3970   -0.6717 C   0  0  0  0  0  0  0  0  0  0  0  0
   -0.2923   -2.7529   -0.3660 O   0  0  0  0  0  1  0  0  0  0  0  0
   -0.4860   -1.0378   -1.8650 O   0  0  0  0  0  0  0  0  0  0  0  0
   -1.3393   -1.1885    1.5969 H   0  0  0  0  0  0  0  0  0  0  0  0
   -0.4079    1.4033   -0.8323 H   0  0  0  0  0  0  0  0  0  0  0  0
   -0.4057    1.7167    0.9267 H   0  0  0  0  0  0  0  0  0  0  0  0
    2.0329   -1.1252    0.7400 H   0  0  0  0  0  0  0  0  0  0  0  0
    1.7686    0.5368    1.3286 H   0  0  0  0  0  0  0  0  0  0  0  0
  2  3  1  0
  3  4  1  0
  4  5  1  0
  5  6  1  0
  5  7  2  0
  3  8  1  0
  8  9  1  0
  9 10  1  0
  9 11  2  0
  3 12  1  0
 12 13  1  0
 12 14  2  0
  2 15  1  0
  4 16  1  0
  4 17  1  0
  8 18  1  0
  8 19  1  0
M  CHG  4   1   3   6  -1  10  -1  13  -1
M  ISO  1   1  67
M  END
$$$$
