
     RDKit          3D

 17 16  0  0  0  0  0  0  0  0999 V2000
   -3.1324   -1.0636    0.0069 O   0  0  0  0  0  0  0  0  0  0  0  0
   -1.8918   -0.6306   -0.4803 C   0  0  0  0  0  0  0  0  0  0  0  0
   -1.2722    0.3490    0.4786 C   0  0  0  0  0  0  0  0  0  0  0  0
   -1.8125    1.4290    0.6640 O   0  0  0  0  0  0  0  0  0  0  0  0
    0.0009    0.0249    1.2149 C   0  0  0  0  0  0  0  0  0  0  0  0
    0.9962    0.9878    0.9418 O   0  0  0  0  0  0  0  0  0  0  0  0
    1.8542    0.5490   -0.4701 P   0  0  0  0  0  5  0  0  0  0  0  0
    2.5869   -0.9666   -0.2707 O   0  0  0  0  0  0  0  0  0  0  0  0
    3.0604    1.7011   -0.7494 O   0  0  0  0  0  0  0  0  0  0  0  0
    0.9240    0.5218   -1.6630 O   0  0  0  0  0  0  0  0  0  0  0  0
   -3.7858   -0.3434   -0.1942 H   0  0  0  0  0  0  0  0  0  0  0  0
   -2.0065   -0.1546   -1.4805 H   0  0  0  0  0  0  0  0  0  0  0  0
   -1.2359   -1.5168   -0.6100 H   0  0  0  0  0  0  0  0  0  0  0  0
   -0.2222    0.0690    2.3015 H   0  0  0  0  0  0  0  0  0  0  0  0
    0.3376   -1.0191    1.0278 H   0  0  0  0  0  0  0  0  0  0  0  0
    1.9743   -1.6131   -0.7043 H   0  0  0  0  0  0  0  0  0  0  0  0
    3.6247    1.6760    0.0641 H   0  0  0  0  0  0  0  0  0  0  0  0
  1  2  1  0
  2  3  1  0
  3  4  2  0
  3  5  1  0
  5  6  1  0
  6  7  1  0
  7  8  1  0
  7  9  1  0
  7 10  2  0
  1 11  1  0
  2 12  1  0
  2 13  1  0
  5 14  1  0
  5 15  1  0
  8 16  1  0
  9 17  1  0
M  END
$$$$
