
     RDKit          3D

 17 16  0  0  0  0  0  0  0  0999 V2000
   -2.0058   -0.3618   -0.1148 C   0  0  0  0  0  0  0  0  0  0  0  0
   -0.5241   -0.5556   -0.4752 C   0  0  1  0  0  0  0  0  0  0  0  0
   -0.2711   -0.2019   -1.8144 O   0  0  0  0  0  0  0  0  0  0  0  0
    0.4353    0.1720    0.5061 C   0  0  2  0  0  0  0  0  0  0  0  0
    0.2900    1.6317    0.4862 N   0  0  0  0  0  0  0  0  0  0  0  0
    1.8638   -0.2016    0.2232 C   0  0  0  0  0  0  0  0  0  0  0  0
    2.4988   -1.1519    1.0170 O   0  0  0  0  0  0  0  0  0  0  0  0
    2.4787    0.3143   -0.7491 O   0  0  0  0  0  0  0  0  0  0  0  0
   -2.3193    0.6941   -0.2513 H   0  0  0  0  0  0  0  0  0  0  0  0
   -2.1879   -0.6611    0.9392 H   0  0  0  0  0  0  0  0  0  0  0  0
   -2.6346   -0.9982   -0.7729 H   0  0  0  0  0  0  0  0  0  0  0  0
   -0.3225   -1.6458   -0.3816 H   0  0  0  0  0  0  0  0  0  0  0  0
   -0.6878    0.6817   -1.9873 H   0  0  0  0  0  0  0  0  0  0  0  0
    0.2026   -0.1795    1.5363 H   0  0  0  0  0  0  0  0  0  0  0  0
   -0.6559    1.8931    0.8450 H   0  0  0  0  0  0  0  0  0  0  0  0
    0.3833    1.9973   -0.4882 H   0  0  0  0  0  0  0  0  0  0  0  0
    3.4564   -1.4266    0.8329 H   0  0  0  0  0  0  0  0  0  0  0  0
  1  2  1  0
  2  3  1  0
  2  4  1  0
  4  5  1  0
  4  6  1  0
  6  7  1  0
  6  8  2  0
  1  9  1  0
  1 10  1  0
  1 11  1  0
  2 12  1  6
  3 13  1  0
  4 14  1  1
  5 15  1  0
  5 16  1  0
  7 17  1  0
M  END
$$$$
