
     RDKit          3D

 35 36  0  0  0  0  0  0  0  0999 V2000
   -3.8830    0.5147    0.9252 C   0  0  1  0  0  0  0  0  0  0  0  0
   -3.8814   -0.5480    1.9345 N   0  0  0  0  0  0  0  0  0  0  0  0
   -3.1907    0.0397   -0.3645 C   0  0  0  0  0  0  0  0  0  0  0  0
   -1.7400   -0.2889   -0.1200 C   0  0  0  0  0  0  0  0  0  0  0  0
   -0.7758    0.7302   -0.1179 C   0  0  0  0  0  0  0  0  0  0  0  0
    0.5658    0.4331    0.1369 C   0  0  0  0  0  0  0  0  0  0  0  0
    0.9672   -0.8906    0.3911 C   0  0  0  0  0  0  0  0  0  0  0  0
   -0.0056   -1.9043    0.4155 C   0  0  0  0  0  0  0  0  0  0  0  0
   -1.3471   -1.6064    0.1601 C   0  0  0  0  0  0  0  0  0  0  0  0
    2.3847   -1.2161    0.6820 C   0  0  0  0  0  0  0  0  0  0  0  0
    2.6404   -2.1539    1.4862 O   0  0  0  0  0  0  0  0  0  0  0  0
    3.5124   -0.4790    0.0616 C   0  0  0  0  0  0  0  0  0  0  0  0
    4.7190   -0.3174    0.7662 C   0  0  0  0  0  0  0  0  0  0  0  0
    5.7937    0.3611    0.1831 C   0  0  0  0  0  0  0  0  0  0  0  0
    5.6795    0.8745   -1.1109 C   0  0  0  0  0  0  0  0  0  0  0  0
    4.4919    0.7055   -1.8266 C   0  0  0  0  0  0  0  0  0  0  0  0
    3.4143    0.0281   -1.2480 C   0  0  0  0  0  0  0  0  0  0  0  0
   -5.2880    0.9706    0.6322 C   0  0  0  0  0  0  0  0  0  0  0  0
   -5.6434    2.2979    0.8514 O   0  0  0  0  0  0  0  0  0  0  0  0
   -6.1426    0.1581    0.1858 O   0  0  0  0  0  0  0  0  0  0  0  0
   -3.3141    1.3826    1.3280 H   0  0  0  0  0  0  0  0  0  0  0  0
   -4.3239   -0.1810    2.8087 H   0  0  0  0  0  0  0  0  0  0  0  0
   -4.4638   -1.3506    1.6001 H   0  0  0  0  0  0  0  0  0  0  0  0
   -3.2565    0.8389   -1.1361 H   0  0  0  0  0  0  0  0  0  0  0  0
   -3.7190   -0.8492   -0.7755 H   0  0  0  0  0  0  0  0  0  0  0  0
   -1.0651    1.7568   -0.3064 H   0  0  0  0  0  0  0  0  0  0  0  0
    1.2859    1.2414    0.1526 H   0  0  0  0  0  0  0  0  0  0  0  0
    0.2740   -2.9297    0.6236 H   0  0  0  0  0  0  0  0  0  0  0  0
   -2.0802   -2.4033    0.1836 H   0  0  0  0  0  0  0  0  0  0  0  0
    4.8259   -0.7061    1.7715 H   0  0  0  0  0  0  0  0  0  0  0  0
    6.7161    0.4882    0.7350 H   0  0  0  0  0  0  0  0  0  0  0  0
    6.5128    1.3983   -1.5609 H   0  0  0  0  0  0  0  0  0  0  0  0
    4.4081    1.0944   -2.8332 H   0  0  0  0  0  0  0  0  0  0  0  0
    2.5118   -0.1122   -1.8293 H   0  0  0  0  0  0  0  0  0  0  0  0
   -6.5833    2.6227    0.6582 H   0  0  0  0  0  0  0  0  0  0  0  0
  1  2  1  0
  1  3  1  0
  3  4  1  0
  4  5  2  0
  5  6  1  0
  6  7  2  0
  7  8  1  0
  8  9  2  0
  7 10  1  0
 10 11  2  0
 10 12  1  0
 12 13  2  0
 13 14  1  0
 14 15  2  0
 15 16  1  0
 16 17  2  0
  1 18  1  0
 18 19  1  0
 18 20  2  0
  9  4  1  0
 17 12  1  0
  1 21  1  1
  2 22  1  0
  2 23  1  0
  3 24  1  0
  3 25  1  0
  5 26  1  0
  6 27  1  0
  8 28  1  0
  9 29  1  0
 13 30  1  0
 14 31  1  0
 15 32  1  0
 16 33  1  0
 17 34  1  0
 19 35  1  0
M  END
$$$$
