
     RDKit          3D

 19 18  0  0  0  0  0  0  0  0999 V2000
   -3.5121    0.8685   -0.1564 N   0  0  0  0  0  0  0  0  0  0  0  0
   -2.4059    0.7231    0.6173 O   0  0  0  0  0  0  0  0  0  0  0  0
   -1.3696    0.3383   -0.2504 C   0  0  0  0  0  0  0  0  0  0  0  0
   -0.0810    0.1586    0.5557 C   0  0  0  0  0  0  0  0  0  0  0  0
    1.1123   -0.2231   -0.3398 C   0  0  2  0  0  0  0  0  0  0  0  0
    0.8903   -1.5270   -0.9708 N   0  0  0  0  0  0  0  0  0  0  0  0
    2.3895   -0.2286    0.4584 C   0  0  0  0  0  0  0  0  0  0  0  0
    3.4168    0.6485    0.1246 O   0  0  0  0  0  0  0  0  0  0  0  0
    2.5328   -1.0222    1.4278 O   0  0  0  0  0  0  0  0  0  0  0  0
   -3.8555    1.8445   -0.0108 H   0  0  0  0  0  0  0  0  0  0  0  0
   -4.2422    0.2344    0.2395 H   0  0  0  0  0  0  0  0  0  0  0  0
   -1.2063    1.1236   -1.0244 H   0  0  0  0  0  0  0  0  0  0  0  0
   -1.6269   -0.6247   -0.7485 H   0  0  0  0  0  0  0  0  0  0  0  0
   -0.2402   -0.6245    1.3298 H   0  0  0  0  0  0  0  0  0  0  0  0
    0.1447    1.1156    1.0769 H   0  0  0  0  0  0  0  0  0  0  0  0
    1.2082    0.5439   -1.1406 H   0  0  0  0  0  0  0  0  0  0  0  0
    0.8647   -2.2725   -0.2368 H   0  0  0  0  0  0  0  0  0  0  0  0
    1.6980   -1.7357   -1.6023 H   0  0  0  0  0  0  0  0  0  0  0  0
    4.2824    0.6592    0.6508 H   0  0  0  0  0  0  0  0  0  0  0  0
  1  2  1  0
  2  3  1  0
  3  4  1  0
  4  5  1  0
  5  6  1  0
  5  7  1  0
  7  8  1  0
  7  9  2  0
  1 10  1  0
  1 11  1  0
  3 12  1  0
  3 13  1  0
  4 14  1  0
  4 15  1  0
  5 16  1  6
  6 17  1  0
  6 18  1  0
  8 19  1  0
M  END
$$$$
