
     RDKit          3D

 32 31  0  0  0  0  0  0  0  0999 V2000
   -4.3139   -0.7485    0.5512 N   0  0  0  0  0  0  0  0  0  0  0  0
   -4.0787    0.6062    0.0468 C   0  0  1  0  0  0  0  0  0  0  0  0
   -2.9968    1.3243    0.8799 C   0  0  0  0  0  0  0  0  0  0  0  0
   -1.6509    0.5899    0.8968 C   0  0  0  0  0  0  0  0  0  0  0  0
   -0.4668    1.5010    1.9476 S   0  0  0  0  0  0  0  0  0  0  0  0
    0.9535    0.3895    1.6478 C   0  0  0  0  0  0  0  0  0  0  0  0
    1.7347    0.8371    0.4104 C   0  0  0  0  0  0  0  0  0  0  0  0
    2.9531   -0.0627    0.1736 C   0  0  0  0  0  0  0  0  0  0  0  0
    3.7348    0.3856   -1.0645 C   0  0  0  0  0  0  0  0  0  0  0  0
    4.9226   -0.4972   -1.2816 C   0  0  0  0  0  0  0  0  0  0  0  0
    6.1304   -0.1991   -0.6586 O   0  0  0  0  0  0  0  0  0  0  0  0
    4.8196   -1.5308   -1.9949 O   0  0  0  0  0  0  0  0  0  0  0  0
   -3.7030    0.5667   -1.4099 C   0  0  0  0  0  0  0  0  0  0  0  0
   -3.0140   -0.5263   -1.9292 O   0  0  0  0  0  0  0  0  0  0  0  0
   -3.9778    1.5451   -2.1552 O   0  0  0  0  0  0  0  0  0  0  0  0
   -5.1104   -1.1651    0.0153 H   0  0  0  0  0  0  0  0  0  0  0  0
   -4.6393   -0.6787    1.5430 H   0  0  0  0  0  0  0  0  0  0  0  0
   -5.0232    1.1896    0.1433 H   0  0  0  0  0  0  0  0  0  0  0  0
   -3.3630    1.4293    1.9247 H   0  0  0  0  0  0  0  0  0  0  0  0
   -2.8480    2.3506    0.4772 H   0  0  0  0  0  0  0  0  0  0  0  0
   -1.2476    0.5207   -0.1340 H   0  0  0  0  0  0  0  0  0  0  0  0
   -1.7840   -0.4334    1.3074 H   0  0  0  0  0  0  0  0  0  0  0  0
    0.6146   -0.6629    1.5359 H   0  0  0  0  0  0  0  0  0  0  0  0
    1.6166    0.4414    2.5374 H   0  0  0  0  0  0  0  0  0  0  0  0
    2.0727    1.8869    0.5539 H   0  0  0  0  0  0  0  0  0  0  0  0
    1.0735    0.7997   -0.4815 H   0  0  0  0  0  0  0  0  0  0  0  0
    3.6195   -0.0225    1.0639 H   0  0  0  0  0  0  0  0  0  0  0  0
    2.6130   -1.1129    0.0333 H   0  0  0  0  0  0  0  0  0  0  0  0
    4.0821    1.4333   -0.9323 H   0  0  0  0  0  0  0  0  0  0  0  0
    3.0780    0.3481   -1.9613 H   0  0  0  0  0  0  0  0  0  0  0  0
    6.9397   -0.7957   -0.7822 H   0  0  0  0  0  0  0  0  0  0  0  0
   -2.7410   -0.5529   -2.9042 H   0  0  0  0  0  0  0  0  0  0  0  0
  1  2  1  0
  2  3  1  0
  3  4  1  0
  4  5  1  0
  5  6  1  0
  6  7  1  0
  7  8  1  0
  8  9  1  0
  9 10  1  0
 10 11  1  0
 10 12  2  0
  2 13  1  0
 13 14  1  0
 13 15  2  0
  1 16  1  0
  1 17  1  0
  2 18  1  6
  3 19  1  0
  3 20  1  0
  4 21  1  0
  4 22  1  0
  6 23  1  0
  6 24  1  0
  7 25  1  0
  7 26  1  0
  8 27  1  0
  8 28  1  0
  9 29  1  0
  9 30  1  0
 11 31  1  0
 14 32  1  0
M  END
$$$$
