
     RDKit          3D

 57 61  0  0  0  0  0  0  0  0999 V2000
   -1.0859   -1.2110   -0.3470 C   0  0  2  0  0  0  0  0  0  0  0  0
   -1.8941   -2.3433   -0.9672 C   0  0  0  0  0  0  0  0  0  0  0  0
   -3.2819   -1.8340   -0.7352 C   0  0  0  0  0  0  0  0  0  0  0  0
   -3.3006   -0.5218   -0.4641 C   0  0  0  0  0  0  0  0  0  0  0  0
   -4.5294    0.2128   -0.0486 C   0  0  0  0  0  0  0  0  0  0  0  0
   -5.5287   -0.4421    0.6958 C   0  0  0  0  0  0  0  0  0  0  0  0
   -6.6770    0.2429    1.0948 C   0  0  0  0  0  0  0  0  0  0  0  0
   -6.8257    1.5847    0.7503 C   0  0  0  0  0  0  0  0  0  0  0  0
   -5.8577    2.2122    0.0342 N   0  0  0  0  0  0  0  0  0  0  0  0
   -4.7284    1.5688   -0.3659 C   0  0  0  0  0  0  0  0  0  0  0  0
   -1.9131    0.0491   -0.6502 C   0  0  2  0  0  0  0  0  0  0  0  0
   -1.7873    0.5399   -2.1257 C   0  0  0  0  0  0  0  0  0  0  0  0
   -1.4489    1.1337    0.3454 C   0  0  0  0  0  0  0  0  0  0  0  0
    0.0698    1.4081    0.1890 C   0  0  0  0  0  0  0  0  0  0  0  0
    0.9653    0.1193    0.2139 C   0  0  1  0  0  0  0  0  0  0  0  0
    0.4074   -1.0396   -0.6724 C   0  0  1  0  0  0  0  0  0  0  0  0
    1.1785   -2.3300   -0.3639 C   0  0  0  0  0  0  0  0  0  0  0  0
    2.6680   -2.1299   -0.3755 C   0  0  0  0  0  0  0  0  0  0  0  0
    3.2686   -0.9442   -0.1257 C   0  0  0  0  0  0  0  0  0  0  0  0
    4.7842   -0.9053   -0.0559 C   0  0  0  0  0  0  0  0  0  0  0  0
    5.2515   -0.0158    1.1042 C   0  0  1  0  0  0  0  0  0  0  0  0
    6.6536    0.0804    1.1220 O   0  0  0  0  0  0  0  0  0  0  0  0
    4.6133    1.3783    1.0250 C   0  0  0  0  0  0  0  0  0  0  0  0
    3.0806    1.2795    1.0476 C   0  0  0  0  0  0  0  0  0  0  0  0
    2.4902    0.3845   -0.0875 C   0  0  2  0  0  0  0  0  0  0  0  0
    2.6827    1.0969   -1.4550 C   0  0  0  0  0  0  0  0  0  0  0  0
   -1.1365   -1.4044    0.7559 H   0  0  0  0  0  0  0  0  0  0  0  0
   -1.6891   -2.4524   -2.0535 H   0  0  0  0  0  0  0  0  0  0  0  0
   -1.7274   -3.3048   -0.4357 H   0  0  0  0  0  0  0  0  0  0  0  0
   -4.1557   -2.4723   -0.7355 H   0  0  0  0  0  0  0  0  0  0  0  0
   -5.4157   -1.4779    0.9887 H   0  0  0  0  0  0  0  0  0  0  0  0
   -7.4423   -0.2614    1.6705 H   0  0  0  0  0  0  0  0  0  0  0  0
   -7.7103    2.1290    1.0530 H   0  0  0  0  0  0  0  0  0  0  0  0
   -4.0066    2.1219   -0.9414 H   0  0  0  0  0  0  0  0  0  0  0  0
   -2.1022   -0.2460   -2.8440 H   0  0  0  0  0  0  0  0  0  0  0  0
   -2.4256    1.4253   -2.3056 H   0  0  0  0  0  0  0  0  0  0  0  0
   -0.7578    0.8387   -2.3973 H   0  0  0  0  0  0  0  0  0  0  0  0
   -1.6588    0.8116    1.3895 H   0  0  0  0  0  0  0  0  0  0  0  0
   -1.9979    2.0827    0.1785 H   0  0  0  0  0  0  0  0  0  0  0  0
    0.3711    2.0795    1.0201 H   0  0  0  0  0  0  0  0  0  0  0  0
    0.2211    1.9797   -0.7455 H   0  0  0  0  0  0  0  0  0  0  0  0
    0.9072   -0.2481    1.2655 H   0  0  0  0  0  0  0  0  0  0  0  0
    0.5330   -0.8276   -1.7513 H   0  0  0  0  0  0  0  0  0  0  0  0
    0.8972   -2.7184    0.6393 H   0  0  0  0  0  0  0  0  0  0  0  0
    0.9171   -3.1058   -1.1154 H   0  0  0  0  0  0  0  0  0  0  0  0
    3.2723   -3.0292   -0.4574 H   0  0  0  0  0  0  0  0  0  0  0  0
    5.2078   -1.9225    0.0984 H   0  0  0  0  0  0  0  0  0  0  0  0
    5.1856   -0.5259   -1.0193 H   0  0  0  0  0  0  0  0  0  0  0  0
    4.9352   -0.4927    2.0586 H   0  0  0  0  0  0  0  0  0  0  0  0
    6.9373    0.5137    0.2745 H   0  0  0  0  0  0  0  0  0  0  0  0
    4.9510    1.9094    0.1096 H   0  0  0  0  0  0  0  0  0  0  0  0
    4.9465    1.9792    1.8989 H   0  0  0  0  0  0  0  0  0  0  0  0
    2.7809    0.8764    2.0406 H   0  0  0  0  0  0  0  0  0  0  0  0
    2.6719    2.3104    0.9795 H   0  0  0  0  0  0  0  0  0  0  0  0
    2.3143    2.1424   -1.4270 H   0  0  0  0  0  0  0  0  0  0  0  0
    2.1683    0.5605   -2.2759 H   0  0  0  0  0  0  0  0  0  0  0  0
    3.7531    1.1552   -1.7367 H   0  0  0  0  0  0  0  0  0  0  0  0
  1  2  1  0
  2  3  1  0
  3  4  2  0
  4  5  1  0
  5  6  2  0
  6  7  1  0
  7  8  2  0
  8  9  1  0
  9 10  2  0
  4 11  1  0
 11 12  1  6
 11 13  1  0
 13 14  1  0
 14 15  1  0
 15 16  1  0
 16 17  1  0
 17 18  1  0
 18 19  2  0
 19 20  1  0
 20 21  1  0
 21 22  1  0
 21 23  1  0
 23 24  1  0
 24 25  1  0
 25 26  1  6
 11  1  1  0
 25 15  1  0
 16  1  1  0
 25 19  1  0
 10  5  1  0
  1 27  1  1
  2 28  1  0
  2 29  1  0
  3 30  1  0
  6 31  1  0
  7 32  1  0
  8 33  1  0
 10 34  1  0
 12 35  1  0
 12 36  1  0
 12 37  1  0
 13 38  1  0
 13 39  1  0
 14 40  1  0
 14 41  1  0
 15 42  1  1
 16 43  1  6
 17 44  1  0
 17 45  1  0
 18 46  1  0
 20 47  1  0
 20 48  1  0
 21 49  1  1
 22 50  1  0
 23 51  1  0
 23 52  1  0
 24 53  1  0
 24 54  1  0
 26 55  1  0
 26 56  1  0
 26 57  1  0
M  END
$$$$
