
     RDKit          3D

 46 49  0  0  0  0  0  0  0  0999 V2000
    7.7273   -0.1517    0.8617 C   0  0  0  0  0  0  0  0  0  0  0  0
    6.2475   -0.3314    0.8347 C   0  0  0  0  0  0  0  0  0  0  0  0
    5.5949   -0.2492    1.9096 O   0  0  0  0  0  0  0  0  0  0  0  0
    5.6250   -0.6867   -0.3683 O   0  0  0  0  0  0  0  0  0  0  0  0
    4.2426   -0.6898   -0.5957 C   0  0  0  0  0  0  0  0  0  0  0  0
    3.2588   -0.0397    0.1530 C   0  0  0  0  0  0  0  0  0  0  0  0
    1.9739   -0.2435   -0.3645 C   0  0  0  0  0  0  0  0  0  0  0  0
    1.9566   -1.0015   -1.5243 C   0  0  0  0  0  0  0  0  0  0  0  0
    0.7018   -1.3949   -2.2368 C   0  0  0  0  0  0  0  0  0  0  0  0
   -0.4512   -0.4761   -1.8034 C   0  0  0  0  0  0  0  0  0  0  0  0
   -0.4715   -0.3566   -0.3239 N   0  0  0  0  0  0  0  0  0  0  0  0
    0.7177    0.3686    0.1838 C   0  0  0  0  0  0  0  0  0  0  0  0
   -1.7378    0.1600    0.2594 C   0  0  0  0  0  0  0  0  0  0  0  0
   -2.0445    1.6147   -0.0803 C   0  0  0  0  0  0  0  0  0  0  0  0
   -1.8398    2.0567   -1.2003 O   0  0  0  0  0  0  0  0  0  0  0  0
   -2.6767    2.5113    0.9506 C   0  0  0  0  0  0  0  0  0  0  0  0
   -2.0262    3.8796    1.1020 C   0  0  0  0  0  0  0  0  0  0  0  0
   -1.7985    2.8133    2.1572 C   0  0  0  0  0  0  0  0  0  0  0  0
   -2.8952   -0.8028    0.0113 C   0  0  0  0  0  0  0  0  0  0  0  0
   -2.9802   -1.9546    0.8187 C   0  0  0  0  0  0  0  0  0  0  0  0
   -4.0001   -2.8899    0.6285 C   0  0  0  0  0  0  0  0  0  0  0  0
   -4.9449   -2.6991   -0.3789 C   0  0  0  0  0  0  0  0  0  0  0  0
   -4.8667   -1.5767   -1.2037 C   0  0  0  0  0  0  0  0  0  0  0  0
   -3.8491   -0.6337   -1.0225 C   0  0  0  0  0  0  0  0  0  0  0  0
   -3.7988    0.4187   -1.8745 F   0  0  0  0  0  0  0  0  0  0  0  0
    3.5231   -1.4788   -1.8995 S   0  0  0  0  0  0  0  0  0  0  0  0
    8.0054    0.6193    1.6110 H   0  0  0  0  0  0  0  0  0  0  0  0
    8.0869    0.1737   -0.1369 H   0  0  0  0  0  0  0  0  0  0  0  0
    8.2119   -1.1139    1.1280 H   0  0  0  0  0  0  0  0  0  0  0  0
    3.4505    0.5790    1.0182 H   0  0  0  0  0  0  0  0  0  0  0  0
    0.8517   -1.3218   -3.3350 H   0  0  0  0  0  0  0  0  0  0  0  0
    0.4569   -2.4466   -1.9759 H   0  0  0  0  0  0  0  0  0  0  0  0
   -1.3953   -0.9140   -2.1859 H   0  0  0  0  0  0  0  0  0  0  0  0
   -0.3064    0.5165   -2.2816 H   0  0  0  0  0  0  0  0  0  0  0  0
    0.6847    1.4390   -0.1154 H   0  0  0  0  0  0  0  0  0  0  0  0
    0.7508    0.3088    1.2934 H   0  0  0  0  0  0  0  0  0  0  0  0
   -1.6027    0.1500    1.3647 H   0  0  0  0  0  0  0  0  0  0  0  0
   -3.7689    2.4620    1.1444 H   0  0  0  0  0  0  0  0  0  0  0  0
   -1.1342    4.0763    0.4686 H   0  0  0  0  0  0  0  0  0  0  0  0
   -2.7186    4.6866    1.4220 H   0  0  0  0  0  0  0  0  0  0  0  0
   -0.7709    2.3905    2.1428 H   0  0  0  0  0  0  0  0  0  0  0  0
   -2.3556    2.9910    3.1011 H   0  0  0  0  0  0  0  0  0  0  0  0
   -2.2515   -2.1300    1.6008 H   0  0  0  0  0  0  0  0  0  0  0  0
   -4.0550   -3.7661    1.2616 H   0  0  0  0  0  0  0  0  0  0  0  0
   -5.7334   -3.4257   -0.5263 H   0  0  0  0  0  0  0  0  0  0  0  0
   -5.5944   -1.4407   -1.9935 H   0  0  0  0  0  0  0  0  0  0  0  0
  1  2  1  0
  2  3  2  0
  2  4  1  0
  4  5  1  0
  5  6  2  0
  6  7  1  0
  7  8  2  0
  8  9  1  0
  9 10  1  0
 10 11  1  0
 11 12  1  0
 11 13  1  0
 13 14  1  0
 14 15  2  0
 14 16  1  0
 16 17  1  0
 17 18  1  0
 13 19  1  0
 19 20  2  0
 20 21  1  0
 21 22  2  0
 22 23  1  0
 23 24  2  0
 24 25  1  0
  8 26  1  0
 26  5  1  0
 12  7  1  0
 18 16  1  0
 24 19  1  0
  1 27  1  0
  1 28  1  0
  1 29  1  0
  6 30  1  0
  9 31  1  0
  9 32  1  0
 10 33  1  0
 10 34  1  0
 12 35  1  0
 12 36  1  0
 13 37  1  0
 16 38  1  0
 17 39  1  0
 17 40  1  0
 18 41  1  0
 18 42  1  0
 20 43  1  0
 21 44  1  0
 22 45  1  0
 23 46  1  0
M  END
$$$$
