
     RDKit          3D

 57 59  0  0  0  0  0  0  0  0999 V2000
    1.5608   -0.2863    0.3339 C   0  0  2  0  0  0  0  0  0  0  0  0
    0.2739   -0.7368    0.8701 N   0  0  0  0  0  0  0  0  0  0  0  0
    1.8264    1.2030    0.6629 C   0  0  0  0  0  0  0  0  0  0  0  0
    1.8945    1.4491    2.1482 C   0  0  0  0  0  0  0  0  0  0  0  0
    0.7985    2.0085    2.8253 C   0  0  0  0  0  0  0  0  0  0  0  0
    0.8512    2.2093    4.2077 C   0  0  0  0  0  0  0  0  0  0  0  0
    1.9968    1.8512    4.9237 C   0  0  0  0  0  0  0  0  0  0  0  0
    3.0905    1.2904    4.2580 C   0  0  0  0  0  0  0  0  0  0  0  0
    3.0408    1.0872    2.8752 C   0  0  0  0  0  0  0  0  0  0  0  0
    1.5867   -0.5496   -1.1554 C   0  0  0  0  0  0  0  0  0  0  0  0
    1.5373    0.4172   -1.9655 O   0  0  0  0  0  0  0  0  0  0  0  0
    1.5998   -1.8971   -1.6671 N   0  0  0  0  0  0  0  0  0  0  0  0
    1.9352   -3.0650   -0.8692 C   0  0  0  0  0  0  0  0  0  0  0  0
    2.0800   -4.2153   -1.8571 C   0  0  0  0  0  0  0  0  0  0  0  0
    1.4144   -3.7521   -3.1507 C   0  0  0  0  0  0  0  0  0  0  0  0
    1.3494   -2.2247   -3.0645 C   0  0  1  0  0  0  0  0  0  0  0  0
    0.0079   -1.6996   -3.5070 C   0  0  0  0  0  0  0  0  0  0  0  0
   -0.0734   -1.0392   -4.5778 O   0  0  0  0  0  0  0  0  0  0  0  0
   -1.1654   -1.9501   -2.7176 N   0  0  0  0  0  0  0  0  0  0  0  0
   -2.4133   -1.2140   -2.9023 C   0  0  0  0  0  0  0  0  0  0  0  0
   -2.5283   -0.1431   -1.8534 C   0  0  0  0  0  0  0  0  0  0  0  0
   -3.2995   -0.3567   -0.7017 C   0  0  0  0  0  0  0  0  0  0  0  0
   -3.3804    0.6278    0.2871 C   0  0  0  0  0  0  0  0  0  0  0  0
   -2.6804    1.8387    0.1482 C   0  0  0  0  0  0  0  0  0  0  0  0
   -1.8907    2.0401   -0.9987 C   0  0  0  0  0  0  0  0  0  0  0  0
   -1.8156    1.0569   -1.9898 C   0  0  0  0  0  0  0  0  0  0  0  0
   -2.7645    2.8758    1.2081 C   0  0  0  0  0  0  0  0  0  0  0  0
   -2.8445    2.4849    2.5844 N   0  0  0  0  0  0  0  0  0  0  0  0
   -2.7720    4.1395    0.9017 N   0  0  0  0  0  4  0  0  0  0  0  0
    2.3722   -0.8864    0.7998 H   0  0  0  0  0  0  0  0  0  0  0  0
    0.3278   -0.7680    1.9137 H   0  0  0  0  0  0  0  0  0  0  0  0
   -0.4712   -0.0518    0.6101 H   0  0  0  0  0  0  0  0  0  0  0  0
    2.7932    1.5124    0.2079 H   0  0  0  0  0  0  0  0  0  0  0  0
    1.0362    1.8396    0.2060 H   0  0  0  0  0  0  0  0  0  0  0  0
   -0.0945    2.2864    2.2827 H   0  0  0  0  0  0  0  0  0  0  0  0
    0.0031    2.6408    4.7236 H   0  0  0  0  0  0  0  0  0  0  0  0
    2.0363    2.0065    5.9941 H   0  0  0  0  0  0  0  0  0  0  0  0
    3.9761    1.0108    4.8139 H   0  0  0  0  0  0  0  0  0  0  0  0
    3.8921    0.6463    2.3714 H   0  0  0  0  0  0  0  0  0  0  0  0
    2.8925   -2.9068   -0.3272 H   0  0  0  0  0  0  0  0  0  0  0  0
    1.1168   -3.2718   -0.1465 H   0  0  0  0  0  0  0  0  0  0  0  0
    3.1586   -4.4111   -2.0460 H   0  0  0  0  0  0  0  0  0  0  0  0
    1.6062   -5.1427   -1.4679 H   0  0  0  0  0  0  0  0  0  0  0  0
    0.3994   -4.2042   -3.2153 H   0  0  0  0  0  0  0  0  0  0  0  0
    2.0010   -4.0766   -4.0378 H   0  0  0  0  0  0  0  0  0  0  0  0
    2.1583   -1.7814   -3.6876 H   0  0  0  0  0  0  0  0  0  0  0  0
   -1.0846   -2.5654   -1.8765 H   0  0  0  0  0  0  0  0  0  0  0  0
   -3.2650   -1.9242   -2.8291 H   0  0  0  0  0  0  0  0  0  0  0  0
   -2.4643   -0.7587   -3.9147 H   0  0  0  0  0  0  0  0  0  0  0  0
   -3.8422   -1.2845   -0.5692 H   0  0  0  0  0  0  0  0  0  0  0  0
   -4.0023    0.4454    1.1542 H   0  0  0  0  0  0  0  0  0  0  0  0
   -1.3108    2.9461   -1.1196 H   0  0  0  0  0  0  0  0  0  0  0  0
   -1.1942    1.2271   -2.8602 H   0  0  0  0  0  0  0  0  0  0  0  0
   -2.9462    3.2007    3.3379 H   0  0  0  0  0  0  0  0  0  0  0  0
   -2.7325    1.4867    2.8686 H   0  0  0  0  0  0  0  0  0  0  0  0
   -2.7523    4.4658   -0.0900 H   0  0  0  0  0  0  0  0  0  0  0  0
   -2.8258    4.8687    1.6475 H   0  0  0  0  0  0  0  0  0  0  0  0
  1  2  1  0
  1  3  1  0
  3  4  1  0
  4  5  2  0
  5  6  1  0
  6  7  2  0
  7  8  1  0
  8  9  2  0
  1 10  1  0
 10 11  2  0
 10 12  1  0
 12 13  1  0
 13 14  1  0
 14 15  1  0
 15 16  1  0
 16 17  1  0
 17 18  2  0
 17 19  1  0
 19 20  1  0
 20 21  1  0
 21 22  2  0
 22 23  1  0
 23 24  2  0
 24 25  1  0
 25 26  2  0
 24 27  1  0
 27 28  1  0
 27 29  2  3
  9  4  1  0
 16 12  1  0
 26 21  1  0
  1 30  1  1
  2 31  1  0
  2 32  1  0
  3 33  1  0
  3 34  1  0
  5 35  1  0
  6 36  1  0
  7 37  1  0
  8 38  1  0
  9 39  1  0
 13 40  1  0
 13 41  1  0
 14 42  1  0
 14 43  1  0
 15 44  1  0
 15 45  1  0
 16 46  1  6
 19 47  1  0
 20 48  1  0
 20 49  1  0
 22 50  1  0
 23 51  1  0
 25 52  1  0
 26 53  1  0
 28 54  1  0
 28 55  1  0
 29 56  1  0
 29 57  1  0
M  CHG  1  29   1
M  END
$$$$
