
     RDKit          3D

 75 77  0  0  0  0  0  0  0  0999 V2000
   10.3519   -0.9239   -0.6316 C   0  0  0  0  0  0  0  0  0  0  0  0
    9.0031   -0.4806   -0.0583 C   0  0  0  0  0  0  0  0  0  0  0  0
    9.0516    1.0076    0.3049 C   0  0  0  0  0  0  0  0  0  0  0  0
    8.7361   -1.2303    1.1083 O   0  0  0  0  0  0  0  0  0  0  0  0
    7.4367   -1.7061    0.9640 C   0  0  0  0  0  0  0  0  0  0  0  0
    7.1305   -1.6277   -0.5082 C   0  0  1  0  0  0  0  0  0  0  0  0
    5.6708   -1.2494   -0.7992 C   0  0  0  0  0  0  0  0  0  0  0  0
    5.3532    0.0437   -0.2843 O   0  0  0  0  0  0  0  0  0  0  0  0
    5.6256    1.2377   -0.9618 C   0  0  0  0  0  0  0  0  0  0  0  0
    6.1032    1.2255   -2.1291 O   0  0  0  0  0  0  0  0  0  0  0  0
    5.2891    2.5427   -0.3098 C   0  0  0  0  0  0  0  0  0  0  0  0
    3.8513    2.9738   -0.6237 C   0  0  0  0  0  0  0  0  0  0  0  0
    2.8414    2.0273   -0.0248 C   0  0  0  0  0  0  0  0  0  0  0  0
    2.2799    1.0025   -0.8020 C   0  0  0  0  0  0  0  0  0  0  0  0
    1.3807    0.0956   -0.2338 C   0  0  0  0  0  0  0  0  0  0  0  0
    1.0289    0.2015    1.1260 C   0  0  0  0  0  0  0  0  0  0  0  0
    0.1321   -0.6802    1.7513 O   0  0  0  0  0  0  0  0  0  0  0  0
   -0.6390   -1.6879    1.0943 C   0  0  0  0  0  0  0  0  0  0  0  0
   -1.8071   -1.0763    0.3050 C   0  0  1  0  0  0  0  0  0  0  0  0
   -2.4772   -2.1107   -0.3700 O   0  0  0  0  0  0  0  0  0  0  0  0
   -2.7828   -0.3446    1.2437 C   0  0  0  0  0  0  0  0  0  0  0  0
   -3.8312    0.3313    0.4685 N   0  0  0  0  0  0  0  0  0  0  0  0
   -4.6629    1.1618    1.3492 C   0  0  0  0  0  0  0  0  0  0  0  0
   -5.6749    1.9687    0.5290 C   0  0  0  0  0  0  0  0  0  0  0  0
   -6.6159    1.0895   -0.1644 N   0  0  0  0  0  0  0  0  0  0  0  0
   -7.6881    0.4156    0.5183 C   0  0  0  0  0  0  0  0  0  0  0  0
   -7.8175    0.5599    1.7649 O   0  0  0  0  0  0  0  0  0  0  0  0
   -8.6126   -0.4297   -0.1980 N   0  0  0  0  0  0  0  0  0  0  0  0
   -8.7302   -0.3411   -1.6588 C   0  0  0  0  0  0  0  0  0  0  0  0
  -10.0981   -0.8543   -2.1201 C   0  0  0  0  0  0  0  0  0  0  0  0
  -10.3751   -2.1237   -1.5637 O   0  0  0  0  0  0  0  0  0  0  0  0
  -10.5093   -2.0034   -0.1620 C   0  0  0  0  0  0  0  0  0  0  0  0
   -9.1770   -1.6051    0.4784 C   0  0  0  0  0  0  0  0  0  0  0  0
    1.5994    1.2192    1.8993 C   0  0  0  0  0  0  0  0  0  0  0  0
    2.5004    2.1244    1.3323 C   0  0  0  0  0  0  0  0  0  0  0  0
    8.0050   -0.6810   -1.0373 O   0  0  0  0  0  0  0  0  0  0  0  0
   10.3133   -2.0024   -0.8953 H   0  0  0  0  0  0  0  0  0  0  0  0
   11.1608   -0.7724    0.1151 H   0  0  0  0  0  0  0  0  0  0  0  0
   10.5934   -0.3451   -1.5489 H   0  0  0  0  0  0  0  0  0  0  0  0
    8.0809    1.3224    0.7432 H   0  0  0  0  0  0  0  0  0  0  0  0
    9.8516    1.2001    1.0515 H   0  0  0  0  0  0  0  0  0  0  0  0
    9.2450    1.6222   -0.6004 H   0  0  0  0  0  0  0  0  0  0  0  0
    7.3761   -2.7551    1.3250 H   0  0  0  0  0  0  0  0  0  0  0  0
    6.7540   -1.0736    1.5729 H   0  0  0  0  0  0  0  0  0  0  0  0
    7.3472   -2.6110   -0.9826 H   0  0  0  0  0  0  0  0  0  0  0  0
    5.4739   -1.2906   -1.8927 H   0  0  0  0  0  0  0  0  0  0  0  0
    5.0040   -1.9947   -0.3157 H   0  0  0  0  0  0  0  0  0  0  0  0
    5.9903    3.3246   -0.6737 H   0  0  0  0  0  0  0  0  0  0  0  0
    5.4291    2.4544    0.7894 H   0  0  0  0  0  0  0  0  0  0  0  0
    3.6853    3.9933   -0.2124 H   0  0  0  0  0  0  0  0  0  0  0  0
    3.7130    3.0467   -1.7252 H   0  0  0  0  0  0  0  0  0  0  0  0
    2.5476    0.8984   -1.8463 H   0  0  0  0  0  0  0  0  0  0  0  0
    0.9743   -0.6845   -0.8611 H   0  0  0  0  0  0  0  0  0  0  0  0
    0.0092   -2.2984    0.4300 H   0  0  0  0  0  0  0  0  0  0  0  0
   -1.0440   -2.3764    1.8666 H   0  0  0  0  0  0  0  0  0  0  0  0
   -1.3957   -0.3417   -0.4259 H   0  0  0  0  0  0  0  0  0  0  0  0
   -2.8289   -1.7296   -1.2167 H   0  0  0  0  0  0  0  0  0  0  0  0
   -3.2385   -1.0727    1.9534 H   0  0  0  0  0  0  0  0  0  0  0  0
   -2.2109    0.4080    1.8315 H   0  0  0  0  0  0  0  0  0  0  0  0
   -4.4476   -0.4084    0.0568 H   0  0  0  0  0  0  0  0  0  0  0  0
   -5.1930    0.5285    2.0950 H   0  0  0  0  0  0  0  0  0  0  0  0
   -4.0242    1.8865    1.9016 H   0  0  0  0  0  0  0  0  0  0  0  0
   -5.1261    2.5834   -0.2175 H   0  0  0  0  0  0  0  0  0  0  0  0
   -6.2313    2.6654    1.1927 H   0  0  0  0  0  0  0  0  0  0  0  0
   -6.4792    0.9542   -1.1902 H   0  0  0  0  0  0  0  0  0  0  0  0
   -8.6312    0.7146   -1.9924 H   0  0  0  0  0  0  0  0  0  0  0  0
   -7.9265   -0.9485   -2.1287 H   0  0  0  0  0  0  0  0  0  0  0  0
  -10.0874   -0.9487   -3.2264 H   0  0  0  0  0  0  0  0  0  0  0  0
  -10.8962   -0.1192   -1.8661 H   0  0  0  0  0  0  0  0  0  0  0  0
  -11.3061   -1.2725    0.1078 H   0  0  0  0  0  0  0  0  0  0  0  0
  -10.8211   -2.9870    0.2484 H   0  0  0  0  0  0  0  0  0  0  0  0
   -8.4594   -2.4498    0.3959 H   0  0  0  0  0  0  0  0  0  0  0  0
   -9.3541   -1.3980    1.5558 H   0  0  0  0  0  0  0  0  0  0  0  0
    1.3435    1.3074    2.9477 H   0  0  0  0  0  0  0  0  0  0  0  0
    2.9367    2.8981    1.9520 H   0  0  0  0  0  0  0  0  0  0  0  0
  1  2  1  0
  2  3  1  0
  2  4  1  0
  4  5  1  0
  5  6  1  0
  6  7  1  0
  7  8  1  0
  8  9  1  0
  9 10  2  0
  9 11  1  0
 11 12  1  0
 12 13  1  0
 13 14  2  0
 14 15  1  0
 15 16  2  0
 16 17  1  0
 17 18  1  0
 18 19  1  0
 19 20  1  0
 19 21  1  0
 21 22  1  0
 22 23  1  0
 23 24  1  0
 24 25  1  0
 25 26  1  0
 26 27  2  0
 26 28  1  0
 28 29  1  0
 29 30  1  0
 30 31  1  0
 31 32  1  0
 32 33  1  0
 16 34  1  0
 34 35  2  0
  6 36  1  0
 36  2  1  0
 35 13  1  0
 33 28  1  0
  1 37  1  0
  1 38  1  0
  1 39  1  0
  3 40  1  0
  3 41  1  0
  3 42  1  0
  5 43  1  0
  5 44  1  0
  6 45  1  6
  7 46  1  0
  7 47  1  0
 11 48  1  0
 11 49  1  0
 12 50  1  0
 12 51  1  0
 14 52  1  0
 15 53  1  0
 18 54  1  0
 18 55  1  0
 19 56  1  6
 20 57  1  0
 21 58  1  0
 21 59  1  0
 22 60  1  0
 23 61  1  0
 23 62  1  0
 24 63  1  0
 24 64  1  0
 25 65  1  0
 29 66  1  0
 29 67  1  0
 30 68  1  0
 30 69  1  0
 32 70  1  0
 32 71  1  0
 33 72  1  0
 33 73  1  0
 34 74  1  0
 35 75  1  0
M  END
$$$$
