
     RDKit          3D

 15 15  0  0  0  0  0  0  0  0999 V2000
    2.7041    1.2397    0.2784 O   0  0  0  0  0  0  0  0  0  0  0  0
    2.0772    0.0326   -0.0180 C   0  0  0  0  0  0  0  0  0  0  0  0
    2.7802   -0.9803   -0.2823 O   0  0  0  0  0  0  0  0  0  0  0  0
    0.6005   -0.0560   -0.0217 C   0  0  0  0  0  0  0  0  0  0  0  0
   -0.0405   -1.2672   -0.3190 C   0  0  0  0  0  0  0  0  0  0  0  0
   -1.4345   -1.3097   -0.3121 C   0  0  0  0  0  0  0  0  0  0  0  0
   -2.0321   -2.3871   -0.5761 O   0  0  0  0  0  0  0  0  0  0  0  0
   -2.1469   -0.1891   -0.0205 N   0  0  0  0  0  0  0  0  0  0  0  0
   -1.5157    0.9816    0.2666 C   0  0  0  0  0  0  0  0  0  0  0  0
   -2.1922    2.0108    0.5346 O   0  0  0  0  0  0  0  0  0  0  0  0
   -0.1553    1.0440    0.2652 N   0  0  0  0  0  0  0  0  0  0  0  0
    3.7145    1.3136    0.2842 H   0  0  0  0  0  0  0  0  0  0  0  0
    0.5268   -2.1607   -0.5514 H   0  0  0  0  0  0  0  0  0  0  0  0
   -3.1921   -0.2274   -0.0170 H   0  0  0  0  0  0  0  0  0  0  0  0
    0.3060    1.9551    0.4890 H   0  0  0  0  0  0  0  0  0  0  0  0
  1  2  1  0
  2  3  2  0
  2  4  1  0
  4  5  2  0
  5  6  1  0
  6  7  2  0
  6  8  1  0
  8  9  1  0
  9 10  2  0
  9 11  1  0
 11  4  1  0
  1 12  1  0
  5 13  1  0
  8 14  1  0
 11 15  1  0
M  END
$$$$
