
     RDKit          3D

 45 48  0  0  0  0  0  0  0  0999 V2000
    0.1647   -0.1124   -0.6883 C   0  0  2  0  0  0  0  0  0  0  0  0
   -0.5475   -1.4761   -0.6443 C   0  0  0  0  0  0  0  0  0  0  0  0
   -1.8792   -1.4145    0.0807 C   0  0  0  0  0  0  0  0  0  0  0  0
   -2.5411   -2.5085    0.3291 N   0  0  0  0  0  0  0  0  0  0  0  0
   -2.1135   -3.7842    0.0146 O   0  0  0  0  0  0  0  0  0  0  0  0
   -2.5021   -0.0843    0.3874 C   0  0  0  0  0  0  0  0  0  0  0  0
   -1.9744    1.0718   -0.2296 C   0  0  0  0  0  0  0  0  0  0  0  0
   -0.8039    0.9805   -1.1658 C   0  0  0  0  0  0  0  0  0  0  0  0
   -2.5456    2.2846   -0.0145 N   0  0  0  0  0  0  0  0  0  0  0  0
   -3.6079    2.4258    0.8134 C   0  0  0  0  0  0  0  0  0  0  0  0
   -4.1854    3.7125    1.0212 N   0  0  0  0  0  0  0  0  0  0  0  0
   -4.1141    1.3432    1.4522 N   0  0  0  0  0  0  0  0  0  0  0  0
   -3.5959    0.0982    1.2773 C   0  0  0  0  0  0  0  0  0  0  0  0
   -4.2144   -1.0216    2.0632 C   0  0  0  0  0  0  0  0  0  0  0  0
    1.4215   -0.1710   -1.5540 C   0  0  0  0  0  0  0  0  0  0  0  0
    1.2962   -0.3782   -2.9442 C   0  0  0  0  0  0  0  0  0  0  0  0
    2.4193   -0.3883   -3.7723 C   0  0  0  0  0  0  0  0  0  0  0  0
    3.6887   -0.1934   -3.2328 C   0  0  0  0  0  0  0  0  0  0  0  0
    4.7770   -0.1994   -4.0415 F   0  0  0  0  0  0  0  0  0  0  0  0
    3.8412   -0.0015   -1.8598 C   0  0  0  0  0  0  0  0  0  0  0  0
    2.7242   -0.0019   -1.0078 C   0  0  0  0  0  0  0  0  0  0  0  0
    2.9614    0.1642    0.4411 C   0  0  0  0  0  0  0  0  0  0  0  0
    2.7246   -0.8936    1.3302 C   0  0  0  0  0  0  0  0  0  0  0  0
    2.9611   -0.7220    2.6951 C   0  0  0  0  0  0  0  0  0  0  0  0
    3.4429    0.5047    3.1568 C   0  0  0  0  0  0  0  0  0  0  0  0
    3.6803    1.5170    2.2806 N   0  0  0  0  0  0  0  0  0  0  0  0
    3.4565    1.3747    0.9466 C   0  0  0  0  0  0  0  0  0  0  0  0
    0.4327    0.1504    0.3567 H   0  0  0  0  0  0  0  0  0  0  0  0
   -0.7327   -1.8457   -1.6756 H   0  0  0  0  0  0  0  0  0  0  0  0
    0.1221   -2.1952   -0.1257 H   0  0  0  0  0  0  0  0  0  0  0  0
   -1.2509   -3.9700   -0.4807 H   0  0  0  0  0  0  0  0  0  0  0  0
   -0.2712    1.9567   -1.1934 H   0  0  0  0  0  0  0  0  0  0  0  0
   -1.1872    0.7609   -2.1846 H   0  0  0  0  0  0  0  0  0  0  0  0
   -5.0020    3.8283    1.6614 H   0  0  0  0  0  0  0  0  0  0  0  0
   -3.7971    4.5510    0.5349 H   0  0  0  0  0  0  0  0  0  0  0  0
   -4.7774   -1.6964    1.3853 H   0  0  0  0  0  0  0  0  0  0  0  0
   -4.9276   -0.6202    2.8146 H   0  0  0  0  0  0  0  0  0  0  0  0
   -3.4314   -1.5861    2.6118 H   0  0  0  0  0  0  0  0  0  0  0  0
    0.3247   -0.5276   -3.3962 H   0  0  0  0  0  0  0  0  0  0  0  0
    2.3025   -0.5439   -4.8371 H   0  0  0  0  0  0  0  0  0  0  0  0
    4.8369    0.1337   -1.4543 H   0  0  0  0  0  0  0  0  0  0  0  0
    2.3600   -1.8459    0.9664 H   0  0  0  0  0  0  0  0  0  0  0  0
    2.7759   -1.5325    3.3880 H   0  0  0  0  0  0  0  0  0  0  0  0
    3.6314    0.6511    4.2119 H   0  0  0  0  0  0  0  0  0  0  0  0
    3.6569    2.2054    0.2820 H   0  0  0  0  0  0  0  0  0  0  0  0
  1  2  1  0
  2  3  1  0
  3  4  2  0
  4  5  1  0
  3  6  1  0
  6  7  2  0
  7  8  1  0
  7  9  1  0
  9 10  2  0
 10 11  1  0
 10 12  1  0
 12 13  2  0
 13 14  1  0
  1 15  1  0
 15 16  2  0
 16 17  1  0
 17 18  2  0
 18 19  1  0
 18 20  1  0
 20 21  2  0
 21 22  1  0
 22 23  2  0
 23 24  1  0
 24 25  2  0
 25 26  1  0
 26 27  2  0
  8  1  1  0
 21 15  1  0
 27 22  1  0
 13  6  1  0
  1 28  1  1
  2 29  1  0
  2 30  1  0
  5 31  1  0
  8 32  1  0
  8 33  1  0
 11 34  1  0
 11 35  1  0
 14 36  1  0
 14 37  1  0
 14 38  1  0
 16 39  1  0
 17 40  1  0
 20 41  1  0
 23 42  1  0
 24 43  1  0
 25 44  1  0
 27 45  1  0
M  END
$$$$
