
     RDKit          3D

 64 68  0  0  0  0  0  0  0  0999 V2000
   -5.4813    2.0591   -0.2568 C   0  0  1  0  0  0  0  0  0  0  0  0
   -6.4675    2.1801   -1.4272 C   0  0  0  0  0  0  0  0  0  0  0  0
   -7.7868    2.0366   -0.9748 O   0  0  0  0  0  0  0  0  0  0  0  0
   -5.6693    0.8130    0.3847 O   0  0  0  0  0  0  0  0  0  0  0  0
   -4.3966    0.2327    0.5579 C   0  0  1  0  0  0  0  0  0  0  0  0
   -4.4706   -1.2422    0.4982 N   0  0  0  0  0  0  0  0  0  0  0  0
   -3.6997   -1.9715    1.3621 C   0  0  0  0  0  0  0  0  0  0  0  0
   -3.7077   -3.3638    1.3224 C   0  0  0  0  0  0  0  0  0  0  0  0
   -4.5067   -3.9999    0.3753 C   0  0  0  0  0  0  0  0  0  0  0  0
   -4.5515   -5.3892    0.2964 O   0  0  0  0  0  0  0  0  0  0  0  0
   -5.2460   -3.2561   -0.4835 N   0  0  0  0  0  0  0  0  0  0  0  0
   -5.2333   -1.8981   -0.4396 C   0  0  0  0  0  0  0  0  0  0  0  0
   -5.9246   -1.2572   -1.2760 O   0  0  0  0  0  0  0  0  0  0  0  0
   -3.4687    0.7761   -0.5166 C   0  0  2  0  0  0  0  0  0  0  0  0
   -2.1364    0.7883   -0.0417 O   0  0  0  0  0  0  0  0  0  0  0  0
   -1.0576    0.6371   -1.3571 P   0  0  0  0  0  5  0  0  0  0  0  0
   -1.2667   -0.8766   -2.0845 O   0  0  0  0  0  0  0  0  0  0  0  0
   -1.3170    1.7198   -2.3820 O   0  0  0  0  0  0  0  0  0  0  0  0
    0.5478    0.7519   -0.7976 O   0  0  0  0  0  0  0  0  0  0  0  0
    0.6885    1.9647   -0.0945 C   0  0  0  0  0  0  0  0  0  0  0  0
    2.1262    2.1085    0.4163 C   0  0  1  0  0  0  0  0  0  0  0  0
    2.4743    1.0011    1.2139 O   0  0  0  0  0  0  0  0  0  0  0  0
    3.8617    0.7811    1.0481 C   0  0  1  0  0  0  0  0  0  0  0  0
    4.1054   -0.6229    0.7032 N   0  0  0  0  0  0  0  0  0  0  0  0
    3.2875   -1.4698    0.0230 C   0  0  0  0  0  0  0  0  0  0  0  0
    3.8506   -2.6838   -0.2253 N   0  0  0  0  0  0  0  0  0  0  0  0
    5.0740   -2.5608    0.3213 C   0  0  0  0  0  0  0  0  0  0  0  0
    5.2320   -1.3328    0.8664 C   0  0  0  0  0  0  0  0  0  0  0  0
    6.3951   -0.9359    1.4436 N   0  0  0  0  0  0  0  0  0  0  0  0
    7.4346   -1.8313    1.4829 C   0  0  0  0  0  0  0  0  0  0  0  0
    8.5630   -1.5049    2.0272 N   0  0  0  0  0  0  0  0  0  0  0  0
    7.2872   -3.0833    0.9411 N   0  0  0  0  0  0  0  0  0  0  0  0
    6.1199   -3.4750    0.3512 C   0  0  0  0  0  0  0  0  0  0  0  0
    6.0028   -4.7485   -0.1992 O   0  0  0  0  0  0  0  0  0  0  0  0
    4.4006    1.7028   -0.0546 C   0  0  2  0  0  0  0  0  0  0  0  0
    5.1284    2.7640    0.5112 O   0  0  0  0  0  0  0  0  0  0  0  0
    3.1413    2.2131   -0.7112 C   0  0  2  0  0  0  0  0  0  0  0  0
    3.2657    3.5393   -1.1561 O   0  0  0  0  0  0  0  0  0  0  0  0
   -4.0210    2.1709   -0.7341 C   0  0  2  0  0  0  0  0  0  0  0  0
   -3.3149    3.1456   -0.0001 O   0  0  0  0  0  0  0  0  0  0  0  0
   -5.7102    2.8697    0.4707 H   0  0  0  0  0  0  0  0  0  0  0  0
   -6.2612    1.3831   -2.1732 H   0  0  0  0  0  0  0  0  0  0  0  0
   -6.3417    3.1639   -1.9348 H   0  0  0  0  0  0  0  0  0  0  0  0
   -8.0277    2.8890   -0.5265 H   0  0  0  0  0  0  0  0  0  0  0  0
   -4.0279    0.5552    1.5607 H   0  0  0  0  0  0  0  0  0  0  0  0
   -3.0668   -1.4786    2.0909 H   0  0  0  0  0  0  0  0  0  0  0  0
   -3.1003   -3.9350    2.0129 H   0  0  0  0  0  0  0  0  0  0  0  0
   -4.0093   -5.9727    0.9229 H   0  0  0  0  0  0  0  0  0  0  0  0
   -3.6114    0.1717   -1.4450 H   0  0  0  0  0  0  0  0  0  0  0  0
   -1.1897   -1.5252   -1.3398 H   0  0  0  0  0  0  0  0  0  0  0  0
    0.0122    1.9846    0.7900 H   0  0  0  0  0  0  0  0  0  0  0  0
    0.4587    2.8366   -0.7491 H   0  0  0  0  0  0  0  0  0  0  0  0
    2.1805    3.0240    1.0498 H   0  0  0  0  0  0  0  0  0  0  0  0
    4.3581    1.0037    2.0182 H   0  0  0  0  0  0  0  0  0  0  0  0
    2.2909   -1.2082   -0.3046 H   0  0  0  0  0  0  0  0  0  0  0  0
    6.4948    0.0237    1.8438 H   0  0  0  0  0  0  0  0  0  0  0  0
    8.7211   -0.5632    2.4509 H   0  0  0  0  0  0  0  0  0  0  0  0
    5.1453   -5.0572   -0.6418 H   0  0  0  0  0  0  0  0  0  0  0  0
    5.0285    1.1603   -0.8007 H   0  0  0  0  0  0  0  0  0  0  0  0
    6.0239    2.4010    0.7391 H   0  0  0  0  0  0  0  0  0  0  0  0
    2.8632    1.5398   -1.5564 H   0  0  0  0  0  0  0  0  0  0  0  0
    3.8264    3.5080   -1.9747 H   0  0  0  0  0  0  0  0  0  0  0  0
   -3.9516    2.4353   -1.8126 H   0  0  0  0  0  0  0  0  0  0  0  0
   -3.3687    2.9085    0.9630 H   0  0  0  0  0  0  0  0  0  0  0  0
  1  2  1  0
  2  3  1  0
  1  4  1  0
  4  5  1  0
  5  6  1  0
  6  7  1  0
  7  8  2  0
  8  9  1  0
  9 10  1  0
  9 11  2  0
 11 12  1  0
 12 13  2  0
  5 14  1  0
 14 15  1  0
 15 16  1  0
 16 17  1  0
 16 18  2  0
 16 19  1  0
 19 20  1  0
 20 21  1  0
 21 22  1  0
 22 23  1  0
 23 24  1  0
 24 25  1  0
 25 26  2  0
 26 27  1  0
 27 28  2  0
 28 29  1  0
 29 30  1  0
 30 31  2  3
 30 32  1  0
 32 33  2  0
 33 34  1  0
 23 35  1  0
 35 36  1  0
 35 37  1  0
 37 38  1  0
 14 39  1  0
 39 40  1  0
 39  1  1  0
 12  6  1  0
 37 21  1  0
 28 24  1  0
 33 27  1  0
  1 41  1  1
  2 42  1  0
  2 43  1  0
  3 44  1  0
  5 45  1  1
  7 46  1  0
  8 47  1  0
 10 48  1  0
 14 49  1  6
 17 50  1  0
 20 51  1  0
 20 52  1  0
 21 53  1  1
 23 54  1  1
 25 55  1  0
 29 56  1  0
 31 57  1  0
 34 58  1  0
 35 59  1  6
 36 60  1  0
 37 61  1  6
 38 62  1  0
 39 63  1  6
 40 64  1  0
M  END
$$$$
