
     RDKit          3D

 26 27  0  0  0  0  0  0  0  0999 V2000
    5.3991   -0.4811   -0.2605 C   0  0  0  0  0  0  0  0  0  0  0  0
    4.0371    0.1340   -0.2606 C   0  0  0  0  0  0  0  0  0  0  0  0
    3.9276    1.3869   -0.1857 O   0  0  0  0  0  0  0  0  0  0  0  0
    2.8784   -0.7057   -0.3881 N   0  0  0  0  0  0  0  0  0  0  0  0
    1.5179   -0.2478   -0.3600 C   0  0  0  0  0  0  0  0  0  0  0  0
    0.4715   -1.0853   -0.5272 N   0  0  0  0  0  0  0  0  0  0  0  0
   -0.7233   -0.4371   -0.4502 C   0  0  0  0  0  0  0  0  0  0  0  0
   -0.6305    0.9373   -0.2182 C   0  0  0  0  0  0  0  0  0  0  0  0
    1.0018    1.3361   -0.1032 S   0  0  0  0  0  0  0  0  0  0  0  0
   -1.7371    1.9067   -0.1312 C   0  0  0  0  0  0  0  0  0  0  0  0
   -1.4729    3.1133    0.1170 O   0  0  0  0  0  0  0  0  0  0  0  0
   -3.0907    1.5407   -0.4336 N   0  0  0  0  0  0  0  0  0  0  0  0
   -3.8300    0.4475    0.2061 C   0  0  0  0  0  0  0  0  0  0  0  0
   -2.9781   -0.7810    0.5541 C   0  0  0  0  0  0  0  0  0  0  0  0
   -2.0191   -1.1793   -0.5736 C   0  0  0  0  0  0  0  0  0  0  0  0
    6.1623    0.2599    0.0595 H   0  0  0  0  0  0  0  0  0  0  0  0
    5.6443   -0.8357   -1.2831 H   0  0  0  0  0  0  0  0  0  0  0  0
    5.4222   -1.3416    0.4403 H   0  0  0  0  0  0  0  0  0  0  0  0
    3.0329   -1.7318   -0.5119 H   0  0  0  0  0  0  0  0  0  0  0  0
   -3.6854    2.2941   -0.8470 H   0  0  0  0  0  0  0  0  0  0  0  0
   -4.6441    0.1279   -0.4803 H   0  0  0  0  0  0  0  0  0  0  0  0
   -4.3092    0.8289    1.1331 H   0  0  0  0  0  0  0  0  0  0  0  0
   -3.6678   -1.6302    0.7535 H   0  0  0  0  0  0  0  0  0  0  0  0
   -2.4191   -0.5979    1.4992 H   0  0  0  0  0  0  0  0  0  0  0  0
   -1.8160   -2.2700   -0.5000 H   0  0  0  0  0  0  0  0  0  0  0  0
   -2.4714   -0.9889   -1.5710 H   0  0  0  0  0  0  0  0  0  0  0  0
  1  2  1  0
  2  3  2  0
  2  4  1  0
  4  5  1  0
  5  6  2  0
  6  7  1  0
  7  8  2  0
  8  9  1  0
  8 10  1  0
 10 11  2  0
 10 12  1  0
 12 13  1  0
 13 14  1  0
 14 15  1  0
  9  5  1  0
 15  7  1  0
  1 16  1  0
  1 17  1  0
  1 18  1  0
  4 19  1  0
 12 20  1  0
 13 21  1  0
 13 22  1  0
 14 23  1  0
 14 24  1  0
 15 25  1  0
 15 26  1  0
M  END
$$$$
