
     RDKit          3D

 52 55  0  0  0  0  0  0  0  0999 V2000
    7.4381   -0.9787    1.0203 C   0  0  0  0  0  0  0  0  0  0  0  0
    6.4468    0.0821    1.3968 C   0  0  0  0  0  0  0  0  0  0  0  0
    6.6906    0.8010    2.4040 O   0  0  0  0  0  0  0  0  0  0  0  0
    5.2395    0.2912    0.6296 N   0  0  0  0  0  0  0  0  0  0  0  0
    5.0781   -0.3670   -0.6786 C   0  0  0  0  0  0  0  0  0  0  0  0
    3.7559    0.0175   -1.3523 C   0  0  0  0  0  0  0  0  0  0  0  0
    2.5951   -0.1277   -0.3557 C   0  0  0  0  0  0  0  0  0  0  0  0
    2.8104    0.7336    0.9164 C   0  0  0  0  0  0  0  0  0  0  0  0
    4.2409    1.2785    1.0715 C   0  0  0  0  0  0  0  0  0  0  0  0
    1.3231    0.2184   -1.0000 N   0  0  0  0  0  0  0  0  0  0  0  0
    0.0553   -0.1073   -0.4123 C   0  0  0  0  0  0  0  0  0  0  0  0
    0.0145   -0.7235    0.6866 O   0  0  0  0  0  0  0  0  0  0  0  0
   -1.1574    0.2733   -1.0862 N   0  0  0  0  0  0  0  0  0  0  0  0
   -2.5234    0.0193   -0.5899 C   0  0  0  0  0  0  0  0  0  0  0  0
   -2.7511    0.7178    0.7802 C   0  0  0  0  0  0  0  0  0  0  0  0
   -4.1934    0.4602    1.2711 C   0  0  0  0  0  0  0  0  0  0  0  0
   -4.4235   -1.0607    1.4186 C   0  0  0  0  0  0  0  0  0  0  0  0
   -4.2255   -1.7523    0.0510 C   0  0  0  0  0  0  0  0  0  0  0  0
   -5.2290   -1.1726   -0.9683 C   0  0  0  0  0  0  0  0  0  0  0  0
   -4.9940    0.3455   -1.1163 C   0  0  0  0  0  0  0  0  0  0  0  0
   -5.1970    1.0353    0.2493 C   0  0  0  0  0  0  0  0  0  0  0  0
   -3.5518    0.5951   -1.6069 C   0  0  0  0  0  0  0  0  0  0  0  0
   -2.7834   -1.5066   -0.4466 C   0  0  0  0  0  0  0  0  0  0  0  0
    6.9380   -1.9689    0.9915 H   0  0  0  0  0  0  0  0  0  0  0  0
    7.8749   -0.7522    0.0258 H   0  0  0  0  0  0  0  0  0  0  0  0
    8.2617   -1.0240    1.7645 H   0  0  0  0  0  0  0  0  0  0  0  0
    5.9178   -0.0819   -1.3482 H   0  0  0  0  0  0  0  0  0  0  0  0
    5.0954   -1.4697   -0.5395 H   0  0  0  0  0  0  0  0  0  0  0  0
    3.5856   -0.6448   -2.2290 H   0  0  0  0  0  0  0  0  0  0  0  0
    3.8143    1.0660   -1.7198 H   0  0  0  0  0  0  0  0  0  0  0  0
    2.5560   -1.2003   -0.0571 H   0  0  0  0  0  0  0  0  0  0  0  0
    2.1124    1.5997    0.9227 H   0  0  0  0  0  0  0  0  0  0  0  0
    2.5655    0.1162    1.8084 H   0  0  0  0  0  0  0  0  0  0  0  0
    4.3903    1.5635    2.1351 H   0  0  0  0  0  0  0  0  0  0  0  0
    4.3546    2.2006    0.4611 H   0  0  0  0  0  0  0  0  0  0  0  0
    1.3296    0.6936   -1.9312 H   0  0  0  0  0  0  0  0  0  0  0  0
   -1.0455    0.7747   -1.9970 H   0  0  0  0  0  0  0  0  0  0  0  0
   -2.0431    0.3388    1.5459 H   0  0  0  0  0  0  0  0  0  0  0  0
   -2.5752    1.8121    0.6837 H   0  0  0  0  0  0  0  0  0  0  0  0
   -4.3438    0.9548    2.2554 H   0  0  0  0  0  0  0  0  0  0  0  0
   -3.7135   -1.4820    2.1639 H   0  0  0  0  0  0  0  0  0  0  0  0
   -5.4519   -1.2537    1.7956 H   0  0  0  0  0  0  0  0  0  0  0  0
   -4.3989   -2.8450    0.1599 H   0  0  0  0  0  0  0  0  0  0  0  0
   -6.2704   -1.3647   -0.6280 H   0  0  0  0  0  0  0  0  0  0  0  0
   -5.1041   -1.6748   -1.9528 H   0  0  0  0  0  0  0  0  0  0  0  0
   -5.7146    0.7623   -1.8531 H   0  0  0  0  0  0  0  0  0  0  0  0
   -6.2379    0.8732    0.6061 H   0  0  0  0  0  0  0  0  0  0  0  0
   -5.0488    2.1328    0.1469 H   0  0  0  0  0  0  0  0  0  0  0  0
   -3.3886    1.6880   -1.7384 H   0  0  0  0  0  0  0  0  0  0  0  0
   -3.4114    0.1197   -2.6033 H   0  0  0  0  0  0  0  0  0  0  0  0
   -2.6308   -2.0126   -1.4255 H   0  0  0  0  0  0  0  0  0  0  0  0
   -2.0767   -1.9678    0.2739 H   0  0  0  0  0  0  0  0  0  0  0  0
  1  2  1  0
  2  3  2  0
  2  4  1  0
  4  5  1  0
  5  6  1  0
  6  7  1  0
  7  8  1  0
  8  9  1  0
  7 10  1  0
 10 11  1  0
 11 12  2  0
 11 13  1  0
 13 14  1  0
 14 15  1  0
 15 16  1  0
 16 17  1  0
 17 18  1  0
 18 19  1  0
 19 20  1  0
 20 21  1  0
 20 22  1  0
 18 23  1  0
  9  4  1  0
 22 14  1  0
 23 14  1  0
 21 16  1  0
  1 24  1  0
  1 25  1  0
  1 26  1  0
  5 27  1  0
  5 28  1  0
  6 29  1  0
  6 30  1  0
  7 31  1  0
  8 32  1  0
  8 33  1  0
  9 34  1  0
  9 35  1  0
 10 36  1  0
 13 37  1  0
 15 38  1  0
 15 39  1  0
 16 40  1  0
 17 41  1  0
 17 42  1  0
 18 43  1  0
 19 44  1  0
 19 45  1  0
 20 46  1  0
 21 47  1  0
 21 48  1  0
 22 49  1  0
 22 50  1  0
 23 51  1  0
 23 52  1  0
M  END
$$$$
