
     RDKit          3D

 57 56  0  0  0  0  0  0  0  0999 V2000
   -6.6436   -1.6974   -2.5931 C   0  0  0  0  0  0  0  0  0  0  0  0
   -6.6142   -2.2667   -1.1752 C   0  0  0  0  0  0  0  0  0  0  0  0
   -6.1890   -1.2325   -0.1172 C   0  0  0  0  0  0  0  0  0  0  0  0
   -4.7792   -0.6433   -0.3091 C   0  0  0  0  0  0  0  0  0  0  0  0
   -3.6647   -1.6898   -0.1406 C   0  0  0  0  0  0  0  0  0  0  0  0
   -2.2551   -1.1103   -0.3637 C   0  0  0  0  0  0  0  0  0  0  0  0
   -1.8363    0.0098    0.6070 C   0  0  0  0  0  0  0  0  0  0  0  0
   -1.7895   -0.4510    2.0737 C   0  0  0  0  0  0  0  0  0  0  0  0
   -1.3595    0.6664    3.0427 C   0  0  0  0  0  0  0  0  0  0  0  0
    0.0594    1.2205    2.8191 C   0  0  0  0  0  0  0  0  0  0  0  0
    1.1506    0.1514    2.9577 C   0  0  0  0  0  0  0  0  0  0  0  0
    2.5092    0.7794    2.8805 C   0  0  0  0  0  0  0  0  0  0  0  0
    3.1378    1.0361    3.9432 O   0  0  0  0  0  0  0  0  0  0  0  0
    3.0698    1.1227    1.6069 N   0  0  0  0  0  0  0  0  0  0  0  0
    4.3839    1.7574    1.4974 C   0  0  0  0  0  0  0  0  0  0  0  0
    4.7874    1.9749    0.0322 C   0  0  0  0  0  0  0  0  0  0  0  0
    5.0807    0.6387   -0.6891 C   0  0  0  0  0  0  0  0  0  0  0  0
    5.6567    0.8088   -2.0481 N   0  0  0  0  0  4  0  0  0  0  0  0
    5.9911   -0.5107   -2.6163 C   0  0  0  0  0  0  0  0  0  0  0  0
    4.7440    1.5275   -2.9592 C   0  0  0  0  0  0  0  0  0  0  0  0
    6.8120    1.5174   -1.9537 O   0  0  0  0  0  1  0  0  0  0  0  0
   -7.2323   -0.7560   -2.6230 H   0  0  0  0  0  0  0  0  0  0  0  0
   -7.1179   -2.4332   -3.2762 H   0  0  0  0  0  0  0  0  0  0  0  0
   -5.6136   -1.5050   -2.9587 H   0  0  0  0  0  0  0  0  0  0  0  0
   -7.6389   -2.6148   -0.9212 H   0  0  0  0  0  0  0  0  0  0  0  0
   -5.9555   -3.1591   -1.1423 H   0  0  0  0  0  0  0  0  0  0  0  0
   -6.9229   -0.3971   -0.1225 H   0  0  0  0  0  0  0  0  0  0  0  0
   -6.2482   -1.7068    0.8867 H   0  0  0  0  0  0  0  0  0  0  0  0
   -4.6965   -0.1498   -1.3002 H   0  0  0  0  0  0  0  0  0  0  0  0
   -4.6540    0.1451    0.4622 H   0  0  0  0  0  0  0  0  0  0  0  0
   -3.8023   -2.4928   -0.8939 H   0  0  0  0  0  0  0  0  0  0  0  0
   -3.7349   -2.1678    0.8587 H   0  0  0  0  0  0  0  0  0  0  0  0
   -1.5182   -1.9397   -0.2893 H   0  0  0  0  0  0  0  0  0  0  0  0
   -2.1928   -0.7167   -1.4019 H   0  0  0  0  0  0  0  0  0  0  0  0
   -0.8221    0.3365    0.2963 H   0  0  0  0  0  0  0  0  0  0  0  0
   -2.5070    0.8878    0.5012 H   0  0  0  0  0  0  0  0  0  0  0  0
   -2.8051   -0.7712    2.3863 H   0  0  0  0  0  0  0  0  0  0  0  0
   -1.1220   -1.3321    2.1781 H   0  0  0  0  0  0  0  0  0  0  0  0
   -2.0831    1.5070    2.9642 H   0  0  0  0  0  0  0  0  0  0  0  0
   -1.4292    0.2764    4.0817 H   0  0  0  0  0  0  0  0  0  0  0  0
    0.2353    2.0107    3.5823 H   0  0  0  0  0  0  0  0  0  0  0  0
    0.1298    1.7130    1.8263 H   0  0  0  0  0  0  0  0  0  0  0  0
    1.0396   -0.3791    3.9288 H   0  0  0  0  0  0  0  0  0  0  0  0
    1.0628   -0.5957    2.1413 H   0  0  0  0  0  0  0  0  0  0  0  0
    2.5060    0.9300    0.7479 H   0  0  0  0  0  0  0  0  0  0  0  0
    5.1470    1.1317    2.0097 H   0  0  0  0  0  0  0  0  0  0  0  0
    4.3496    2.7441    2.0081 H   0  0  0  0  0  0  0  0  0  0  0  0
    5.6955    2.6146    0.0178 H   0  0  0  0  0  0  0  0  0  0  0  0
    3.9699    2.5245   -0.4806 H   0  0  0  0  0  0  0  0  0  0  0  0
    5.7926    0.0579   -0.0585 H   0  0  0  0  0  0  0  0  0  0  0  0
    4.1416    0.0441   -0.7493 H   0  0  0  0  0  0  0  0  0  0  0  0
    6.4756   -0.4013   -3.6122 H   0  0  0  0  0  0  0  0  0  0  0  0
    6.7052   -1.0545   -1.9585 H   0  0  0  0  0  0  0  0  0  0  0  0
    5.0772   -1.1345   -2.7362 H   0  0  0  0  0  0  0  0  0  0  0  0
    5.1422    1.5303   -3.9983 H   0  0  0  0  0  0  0  0  0  0  0  0
    4.6371    2.5920   -2.6602 H   0  0  0  0  0  0  0  0  0  0  0  0
    3.7380    1.0524   -2.9704 H   0  0  0  0  0  0  0  0  0  0  0  0
  1  2  1  0
  2  3  1  0
  3  4  1  0
  4  5  1  0
  5  6  1  0
  6  7  1  0
  7  8  1  0
  8  9  1  0
  9 10  1  0
 10 11  1  0
 11 12  1  0
 12 13  2  0
 12 14  1  0
 14 15  1  0
 15 16  1  0
 16 17  1  0
 17 18  1  0
 18 19  1  0
 18 20  1  0
 18 21  1  0
  1 22  1  0
  1 23  1  0
  1 24  1  0
  2 25  1  0
  2 26  1  0
  3 27  1  0
  3 28  1  0
  4 29  1  0
  4 30  1  0
  5 31  1  0
  5 32  1  0
  6 33  1  0
  6 34  1  0
  7 35  1  0
  7 36  1  0
  8 37  1  0
  8 38  1  0
  9 39  1  0
  9 40  1  0
 10 41  1  0
 10 42  1  0
 11 43  1  0
 11 44  1  0
 14 45  1  0
 15 46  1  0
 15 47  1  0
 16 48  1  0
 16 49  1  0
 17 50  1  0
 17 51  1  0
 19 52  1  0
 19 53  1  0
 19 54  1  0
 20 55  1  0
 20 56  1  0
 20 57  1  0
M  CHG  2  18   1  21  -1
M  END
$$$$
