
     RDKit          3D

 62 64  0  0  0  0  0  0  0  0999 V2000
    6.1217    2.5885    0.7600 C   0  0  1  0  0  0  0  0  0  0  0  0
    6.9014    2.2106   -0.4221 N   0  0  0  0  0  0  0  0  0  0  0  0
    4.7690    1.8459    0.8283 C   0  0  0  0  0  0  0  0  0  0  0  0
    3.8295    2.2322   -0.3213 C   0  0  0  0  0  0  0  0  0  0  0  0
    2.4916    1.5806   -0.1429 C   0  0  0  0  0  0  0  0  0  0  0  0
    1.5467    2.2352    0.3761 O   0  0  0  0  0  0  0  0  0  0  0  0
    2.3044    0.2083   -0.5191 N   0  0  0  0  0  0  0  0  0  0  0  0
    1.0149   -0.4736   -0.3695 C   0  0  1  0  0  0  0  0  0  0  0  0
    0.0825   -0.0898   -1.5304 C   0  0  0  0  0  0  0  0  0  0  0  0
   -1.5931   -0.7931   -1.3024 S   0  0  0  0  0  0  0  0  0  0  0  0
   -2.2525    0.5366   -0.2210 C   0  0  2  0  0  0  0  0  0  0  0  0
   -3.1687   -0.0943    0.7998 C   0  0  0  0  0  0  0  0  0  0  0  0
   -2.6409   -0.5348    2.0244 C   0  0  0  0  0  0  0  0  0  0  0  0
   -3.4656   -1.1444    2.9695 C   0  0  0  0  0  0  0  0  0  0  0  0
   -4.8226   -1.3197    2.7020 C   0  0  0  0  0  0  0  0  0  0  0  0
   -5.3595   -0.9005    1.4823 C   0  0  0  0  0  0  0  0  0  0  0  0
   -4.5370   -0.3039    0.5037 C   0  0  0  0  0  0  0  0  0  0  0  0
   -5.0745    0.1549   -0.8131 C   0  0  0  0  0  0  0  0  0  0  0  0
   -6.2950   -0.3244   -1.3333 C   0  0  0  0  0  0  0  0  0  0  0  0
   -6.7695    0.1315   -2.5657 C   0  0  0  0  0  0  0  0  0  0  0  0
   -6.0360    1.0626   -3.2998 C   0  0  0  0  0  0  0  0  0  0  0  0
   -4.8156    1.5308   -2.8129 C   0  0  0  0  0  0  0  0  0  0  0  0
   -4.3174    1.0683   -1.5845 C   0  0  0  0  0  0  0  0  0  0  0  0
   -2.9960    1.5951   -1.0659 C   0  0  1  0  0  0  0  0  0  0  0  0
   -3.1964    2.7761   -0.3287 O   0  0  0  0  0  0  0  0  0  0  0  0
    1.2178   -1.9682   -0.3144 C   0  0  0  0  0  0  0  0  0  0  0  0
    1.8434   -2.5490   -1.2437 O   0  0  0  0  0  0  0  0  0  0  0  0
    0.6704   -2.7318    0.7711 N   0  0  0  0  0  0  0  0  0  0  0  0
    0.8403   -4.1784    0.8736 C   0  0  0  0  0  0  0  0  0  0  0  0
    2.2475   -4.5067    1.2564 C   0  0  0  0  0  0  0  0  0  0  0  0
    3.1356   -4.9826    0.2971 O   0  0  0  0  0  0  0  0  0  0  0  0
    2.6369   -4.3244    2.4408 O   0  0  0  0  0  0  0  0  0  0  0  0
    6.9265    2.2955    1.9926 C   0  0  0  0  0  0  0  0  0  0  0  0
    7.4372    1.0179    2.2048 O   0  0  0  0  0  0  0  0  0  0  0  0
    7.1253    3.2002    2.8474 O   0  0  0  0  0  0  0  0  0  0  0  0
    5.9267    3.6847    0.7233 H   0  0  0  0  0  0  0  0  0  0  0  0
    6.8722    1.1727   -0.5522 H   0  0  0  0  0  0  0  0  0  0  0  0
    6.4761    2.6517   -1.2690 H   0  0  0  0  0  0  0  0  0  0  0  0
    4.9385    0.7460    0.8162 H   0  0  0  0  0  0  0  0  0  0  0  0
    4.2720    2.1014    1.7913 H   0  0  0  0  0  0  0  0  0  0  0  0
    4.2567    1.9063   -1.2931 H   0  0  0  0  0  0  0  0  0  0  0  0
    3.7028    3.3366   -0.3517 H   0  0  0  0  0  0  0  0  0  0  0  0
    3.1113   -0.2986   -0.9499 H   0  0  0  0  0  0  0  0  0  0  0  0
    0.5569   -0.1503    0.5895 H   0  0  0  0  0  0  0  0  0  0  0  0
    0.0186    1.0147   -1.6275 H   0  0  0  0  0  0  0  0  0  0  0  0
    0.4969   -0.4773   -2.4856 H   0  0  0  0  0  0  0  0  0  0  0  0
   -1.4211    1.0486    0.3099 H   0  0  0  0  0  0  0  0  0  0  0  0
   -1.5895   -0.4032    2.2479 H   0  0  0  0  0  0  0  0  0  0  0  0
   -3.0531   -1.4757    3.9137 H   0  0  0  0  0  0  0  0  0  0  0  0
   -5.4628   -1.7786    3.4445 H   0  0  0  0  0  0  0  0  0  0  0  0
   -6.4208   -1.0281    1.3285 H   0  0  0  0  0  0  0  0  0  0  0  0
   -6.8802   -1.0670   -0.8112 H   0  0  0  0  0  0  0  0  0  0  0  0
   -7.7083   -0.2417   -2.9543 H   0  0  0  0  0  0  0  0  0  0  0  0
   -6.4104    1.4169   -4.2516 H   0  0  0  0  0  0  0  0  0  0  0  0
   -4.2549    2.2509   -3.3960 H   0  0  0  0  0  0  0  0  0  0  0  0
   -2.3456    1.8548   -1.9297 H   0  0  0  0  0  0  0  0  0  0  0  0
   -3.7917    2.5620    0.4366 H   0  0  0  0  0  0  0  0  0  0  0  0
    0.1060   -2.2476    1.5050 H   0  0  0  0  0  0  0  0  0  0  0  0
    0.5781   -4.6613   -0.0923 H   0  0  0  0  0  0  0  0  0  0  0  0
    0.1526   -4.5777    1.6502 H   0  0  0  0  0  0  0  0  0  0  0  0
    4.0958   -5.1964    0.5389 H   0  0  0  0  0  0  0  0  0  0  0  0
    7.9749    0.8047    3.0363 H   0  0  0  0  0  0  0  0  0  0  0  0
  1  2  1  0
  1  3  1  0
  3  4  1  0
  4  5  1  0
  5  6  2  0
  5  7  1  0
  7  8  1  0
  8  9  1  0
  9 10  1  0
 10 11  1  0
 11 12  1  0
 12 13  2  0
 13 14  1  0
 14 15  2  0
 15 16  1  0
 16 17  2  0
 17 18  1  0
 18 19  2  0
 19 20  1  0
 20 21  2  0
 21 22  1  0
 22 23  2  0
 23 24  1  0
 24 25  1  0
  8 26  1  0
 26 27  2  0
 26 28  1  0
 28 29  1  0
 29 30  1  0
 30 31  1  0
 30 32  2  0
  1 33  1  0
 33 34  1  0
 33 35  2  0
 24 11  1  0
 17 12  1  0
 23 18  1  0
  1 36  1  6
  2 37  1  0
  2 38  1  0
  3 39  1  0
  3 40  1  0
  4 41  1  0
  4 42  1  0
  7 43  1  0
  8 44  1  1
  9 45  1  0
  9 46  1  0
 11 47  1  1
 13 48  1  0
 14 49  1  0
 15 50  1  0
 16 51  1  0
 19 52  1  0
 20 53  1  0
 21 54  1  0
 22 55  1  0
 24 56  1  6
 25 57  1  0
 28 58  1  0
 29 59  1  0
 29 60  1  0
 31 61  1  0
 34 62  1  0
M  END
$$$$
