
     RDKit          3D

 97102  0  0  0  0  0  0  0  0999 V2000
   -3.0192   -3.7624    3.5018 C   0  0  0  0  0  0  0  0  0  0  0  0
   -1.8791   -4.6196    2.9194 C   0  0  0  0  0  0  0  0  0  0  0  0
   -2.4365   -5.9097    2.2879 C   0  0  0  0  0  0  0  0  0  0  0  0
   -0.9145   -4.9988    4.0533 C   0  0  0  0  0  0  0  0  0  0  0  0
   -1.1254   -3.8702    1.9551 O   0  0  0  0  0  0  0  0  0  0  0  0
   -1.6148   -3.3264    0.7584 C   0  0  0  0  0  0  0  0  0  0  0  0
   -2.8230   -3.4666    0.4293 O   0  0  0  0  0  0  0  0  0  0  0  0
   -0.7116   -2.6045   -0.0887 N   0  0  0  0  0  0  0  0  0  0  0  0
   -1.0820   -1.9750   -1.3622 C   0  0  1  0  0  0  0  0  0  0  0  0
   -1.5370   -3.0182   -2.4111 C   0  0  0  0  0  0  0  0  0  0  0  0
   -0.5295   -4.1719   -2.6159 C   0  0  0  0  0  0  0  0  0  0  0  0
    0.9062   -3.6709   -2.8307 C   0  0  0  0  0  0  0  0  0  0  0  0
    1.8709   -4.7878   -3.2319 C   0  0  0  0  0  0  0  0  0  0  0  0
    3.3207   -4.2784   -3.3099 C   0  0  0  0  0  0  0  0  0  0  0  0
    3.9347   -4.0971   -1.9399 C   0  0  0  0  0  0  0  0  0  0  0  0
    3.9744   -2.9458   -1.2406 C   0  0  0  0  0  0  0  0  0  0  0  0
    3.4100   -1.6245   -1.7244 C   0  0  2  0  0  0  0  0  0  0  0  0
    4.3673   -0.4553   -1.5105 C   0  0  0  0  0  0  0  0  0  0  0  0
    3.0883   -0.5480   -0.6779 C   0  0  1  0  0  0  0  0  0  0  0  0
    2.0524    0.4169   -1.0727 N   0  0  0  0  0  0  0  0  0  0  0  0
    0.7691    0.5082   -0.4321 C   0  0  0  0  0  0  0  0  0  0  0  0
    0.6267    0.1629    0.7721 O   0  0  0  0  0  0  0  0  0  0  0  0
   -0.4046    1.0733   -1.1933 C   0  0  2  0  0  0  0  0  0  0  0  0
   -0.5720    2.5675   -0.9129 C   0  0  0  0  0  0  0  0  0  0  0  0
   -1.7238    2.6684    0.0894 C   0  0  2  0  0  0  0  0  0  0  0  0
   -2.5508    1.4049   -0.1189 C   0  0  0  0  0  0  0  0  0  0  0  0
   -1.6625    0.4584   -0.7734 N   0  0  0  0  0  0  0  0  0  0  0  0
   -2.0886   -0.8736   -1.1269 C   0  0  0  0  0  0  0  0  0  0  0  0
   -3.3209   -1.1419   -1.1516 O   0  0  0  0  0  0  0  0  0  0  0  0
   -2.5191    3.8314   -0.1389 O   0  0  0  0  0  0  0  0  0  0  0  0
   -2.0778    5.1291    0.1428 C   0  0  0  0  0  0  0  0  0  0  0  0
   -0.9407    5.3214    0.6545 O   0  0  0  0  0  0  0  0  0  0  0  0
   -2.9265    6.2440   -0.1506 N   0  0  0  0  0  0  0  0  0  0  0  0
   -2.5622    7.6380    0.1044 C   0  0  0  0  0  0  0  0  0  0  0  0
   -3.7537    8.3823   -0.3711 C   0  0  0  0  0  0  0  0  0  0  0  0
   -3.9588    9.7630   -0.3681 C   0  0  0  0  0  0  0  0  0  0  0  0
   -5.1717   10.2620   -0.8701 C   0  0  0  0  0  0  0  0  0  0  0  0
   -6.1526    9.3801   -1.3633 C   0  0  0  0  0  0  0  0  0  0  0  0
   -5.9249    7.9942   -1.3567 C   0  0  0  0  0  0  0  0  0  0  0  0
   -6.8642    7.1383   -1.8298 F   0  0  0  0  0  0  0  0  0  0  0  0
   -4.7122    7.5188   -0.8532 C   0  0  0  0  0  0  0  0  0  0  0  0
   -4.2553    6.1112   -0.7470 C   0  0  0  0  0  0  0  0  0  0  0  0
    3.3229   -0.7691    0.7917 C   0  0  0  0  0  0  0  0  0  0  0  0
    2.8130   -1.7721    1.3597 O   0  0  0  0  0  0  0  0  0  0  0  0
    4.0751    0.1887    1.5453 N   0  0  0  0  0  0  0  0  0  0  0  0
    4.3599    0.0279    3.2501 S   0  0  0  0  0  6  0  0  0  0  0  0
    4.4525    1.4013    3.8518 O   0  0  0  0  0  0  0  0  0  0  0  0
    3.2102   -0.6944    3.8946 O   0  0  0  0  0  0  0  0  0  0  0  0
    5.8808   -0.8528    3.6016 C   0  0  0  0  0  0  0  0  0  0  0  0
    7.0237   -0.5355    2.6520 C   0  0  0  0  0  0  0  0  0  0  0  0
    6.3097   -1.8753    2.5631 C   0  0  0  0  0  0  0  0  0  0  0  0
   -3.7900   -3.5390    2.7364 H   0  0  0  0  0  0  0  0  0  0  0  0
   -2.6176   -2.7997    3.8843 H   0  0  0  0  0  0  0  0  0  0  0  0
   -3.5203   -4.2953    4.3386 H   0  0  0  0  0  0  0  0  0  0  0  0
   -3.2068   -5.6860    1.5220 H   0  0  0  0  0  0  0  0  0  0  0  0
   -2.9085   -6.5516    3.0628 H   0  0  0  0  0  0  0  0  0  0  0  0
   -1.6180   -6.4832    1.8025 H   0  0  0  0  0  0  0  0  0  0  0  0
   -0.0739   -5.6080    3.6565 H   0  0  0  0  0  0  0  0  0  0  0  0
   -1.4353   -5.5853    4.8412 H   0  0  0  0  0  0  0  0  0  0  0  0
   -0.4872   -4.0839    4.5176 H   0  0  0  0  0  0  0  0  0  0  0  0
    0.2780   -2.5137    0.2332 H   0  0  0  0  0  0  0  0  0  0  0  0
   -0.1816   -1.4961   -1.7901 H   0  0  0  0  0  0  0  0  0  0  0  0
   -2.5165   -3.4562   -2.1252 H   0  0  0  0  0  0  0  0  0  0  0  0
   -1.6843   -2.4997   -3.3842 H   0  0  0  0  0  0  0  0  0  0  0  0
   -0.5544   -4.8449   -1.7310 H   0  0  0  0  0  0  0  0  0  0  0  0
   -0.8515   -4.7648   -3.4996 H   0  0  0  0  0  0  0  0  0  0  0  0
    1.2638   -3.2448   -1.8747 H   0  0  0  0  0  0  0  0  0  0  0  0
    0.9137   -2.8814   -3.6142 H   0  0  0  0  0  0  0  0  0  0  0  0
    1.8063   -5.6293   -2.5068 H   0  0  0  0  0  0  0  0  0  0  0  0
    1.5738   -5.1746   -4.2310 H   0  0  0  0  0  0  0  0  0  0  0  0
    3.9213   -5.0475   -3.8413 H   0  0  0  0  0  0  0  0  0  0  0  0
    3.3927   -3.3566   -3.9240 H   0  0  0  0  0  0  0  0  0  0  0  0
    4.3684   -4.9802   -1.4788 H   0  0  0  0  0  0  0  0  0  0  0  0
    4.4580   -2.9829   -0.2698 H   0  0  0  0  0  0  0  0  0  0  0  0
    2.8473   -1.5550   -2.6774 H   0  0  0  0  0  0  0  0  0  0  0  0
    4.3607    0.2811   -2.3418 H   0  0  0  0  0  0  0  0  0  0  0  0
    5.3105   -0.7061   -0.9758 H   0  0  0  0  0  0  0  0  0  0  0  0
    2.1829    0.9625   -1.9549 H   0  0  0  0  0  0  0  0  0  0  0  0
   -0.2590    0.9136   -2.2849 H   0  0  0  0  0  0  0  0  0  0  0  0
    0.3524    3.0421   -0.5149 H   0  0  0  0  0  0  0  0  0  0  0  0
   -0.8532    3.0844   -1.8574 H   0  0  0  0  0  0  0  0  0  0  0  0
   -1.3213    2.6730    1.1279 H   0  0  0  0  0  0  0  0  0  0  0  0
   -3.4262    1.6060   -0.7750 H   0  0  0  0  0  0  0  0  0  0  0  0
   -2.8968    0.9982    0.8561 H   0  0  0  0  0  0  0  0  0  0  0  0
   -1.6636    7.9190   -0.4851 H   0  0  0  0  0  0  0  0  0  0  0  0
   -2.4032    7.8056    1.1910 H   0  0  0  0  0  0  0  0  0  0  0  0
   -3.2005   10.4350    0.0124 H   0  0  0  0  0  0  0  0  0  0  0  0
   -5.3532   11.3289   -0.8779 H   0  0  0  0  0  0  0  0  0  0  0  0
   -7.0848    9.7725   -1.7485 H   0  0  0  0  0  0  0  0  0  0  0  0
   -4.1845    5.6448   -1.7528 H   0  0  0  0  0  0  0  0  0  0  0  0
   -4.9251    5.5306   -0.0774 H   0  0  0  0  0  0  0  0  0  0  0  0
    4.4575    1.0313    1.0615 H   0  0  0  0  0  0  0  0  0  0  0  0
    6.1776   -1.0629    4.6507 H   0  0  0  0  0  0  0  0  0  0  0  0
    8.0337   -0.5960    3.1095 H   0  0  0  0  0  0  0  0  0  0  0  0
    6.7942    0.1532    1.8117 H   0  0  0  0  0  0  0  0  0  0  0  0
    6.9013   -2.7233    2.9677 H   0  0  0  0  0  0  0  0  0  0  0  0
    5.6706   -1.9799    1.6647 H   0  0  0  0  0  0  0  0  0  0  0  0
  1  2  1  0
  2  3  1  0
  2  4  1  0
  2  5  1  0
  5  6  1  0
  6  7  2  0
  6  8  1  0
  8  9  1  0
  9 10  1  0
 10 11  1  0
 11 12  1  0
 12 13  1  0
 13 14  1  0
 14 15  1  0
 15 16  2  0
 16 17  1  0
 17 18  1  0
 18 19  1  0
 19 20  1  0
 20 21  1  0
 21 22  2  0
 21 23  1  0
 23 24  1  0
 24 25  1  0
 25 26  1  0
 26 27  1  0
 27 28  1  0
 28 29  2  0
 25 30  1  0
 30 31  1  0
 31 32  2  0
 31 33  1  0
 33 34  1  0
 34 35  1  0
 35 36  2  0
 36 37  1  0
 37 38  2  0
 38 39  1  0
 39 40  1  0
 39 41  2  0
 41 42  1  0
 19 43  1  1
 43 44  2  0
 43 45  1  0
 45 46  1  0
 46 47  2  0
 46 48  2  0
 46 49  1  0
 49 50  1  0
 50 51  1  0
 28  9  1  0
 42 33  1  0
 51 49  1  0
 19 17  1  0
 27 23  1  0
 41 35  1  0
  1 52  1  0
  1 53  1  0
  1 54  1  0
  3 55  1  0
  3 56  1  0
  3 57  1  0
  4 58  1  0
  4 59  1  0
  4 60  1  0
  8 61  1  0
  9 62  1  6
 10 63  1  0
 10 64  1  0
 11 65  1  0
 11 66  1  0
 12 67  1  0
 12 68  1  0
 13 69  1  0
 13 70  1  0
 14 71  1  0
 14 72  1  0
 15 73  1  0
 16 74  1  0
 17 75  1  6
 18 76  1  0
 18 77  1  0
 20 78  1  0
 23 79  1  6
 24 80  1  0
 24 81  1  0
 25 82  1  1
 26 83  1  0
 26 84  1  0
 34 85  1  0
 34 86  1  0
 36 87  1  0
 37 88  1  0
 38 89  1  0
 42 90  1  0
 42 91  1  0
 45 92  1  0
 49 93  1  0
 50 94  1  0
 50 95  1  0
 51 96  1  0
 51 97  1  0
M  END
$$$$
