
     RDKit          3D

 24 24  0  0  0  0  0  0  0  0999 V2000
   -3.4571   -1.4297   -0.0065 C   0  0  0  0  0  0  0  0  0  0  0  0
   -3.0636    0.0323   -0.1897 C   0  0  0  0  0  0  0  0  0  0  0  0
   -1.5923    0.2240    0.0632 C   0  0  0  0  0  0  0  0  0  0  0  0
   -1.1258    0.4967    1.3574 C   0  0  0  0  0  0  0  0  0  0  0  0
    0.2431    0.6440    1.5974 C   0  0  0  0  0  0  0  0  0  0  0  0
    1.1712    0.5115    0.5525 C   0  0  0  0  0  0  0  0  0  0  0  0
    2.5730    0.6696    0.8368 N   0  0  0  0  0  0  0  0  0  0  0  0
    3.8289    0.4930   -0.3467 S   0  0  0  0  0  6  0  0  0  0  0  0
    3.7535   -1.0443   -1.0239 O   0  0  0  0  0  0  0  0  0  0  0  0
    3.6674    1.5392   -1.4137 O   0  0  0  0  0  0  0  0  0  0  0  0
    5.1623    0.6709    0.3232 O   0  0  0  0  0  0  0  0  0  0  0  0
    0.7006    0.2253   -0.7432 C   0  0  0  0  0  0  0  0  0  0  0  0
   -0.6690    0.0783   -0.9826 C   0  0  0  0  0  0  0  0  0  0  0  0
   -3.2397   -1.7602    1.0318 H   0  0  0  0  0  0  0  0  0  0  0  0
   -2.8979   -2.0717   -0.7204 H   0  0  0  0  0  0  0  0  0  0  0  0
   -4.5443   -1.5490   -0.1974 H   0  0  0  0  0  0  0  0  0  0  0  0
   -3.6570    0.6619    0.5086 H   0  0  0  0  0  0  0  0  0  0  0  0
   -3.3192    0.3540   -1.2228 H   0  0  0  0  0  0  0  0  0  0  0  0
   -1.8222    0.5942    2.1812 H   0  0  0  0  0  0  0  0  0  0  0  0
    0.5819    0.8586    2.6032 H   0  0  0  0  0  0  0  0  0  0  0  0
    2.8709    0.8950    1.8125 H   0  0  0  0  0  0  0  0  0  0  0  0
    4.4655   -1.0553   -1.7125 H   0  0  0  0  0  0  0  0  0  0  0  0
    1.3799    0.1121   -1.5755 H   0  0  0  0  0  0  0  0  0  0  0  0
   -1.0101   -0.1504   -1.9848 H   0  0  0  0  0  0  0  0  0  0  0  0
  1  2  1  0
  2  3  1  0
  3  4  2  0
  4  5  1  0
  5  6  2  0
  6  7  1  0
  7  8  1  0
  8  9  1  0
  8 10  2  0
  8 11  2  0
  6 12  1  0
 12 13  2  0
 13  3  1  0
  1 14  1  0
  1 15  1  0
  1 16  1  0
  2 17  1  0
  2 18  1  0
  4 19  1  0
  5 20  1  0
  7 21  1  0
  9 22  1  0
 12 23  1  0
 13 24  1  0
M  END
$$$$
