
     RDKit          3D

 50 54  0  0  0  0  0  0  0  0999 V2000
    0.8465    0.9850    2.1157 C   0  0  1  0  0  0  0  0  0  0  0  0
   -0.0562    0.2650    3.1448 C   0  0  0  0  0  0  0  0  0  0  0  0
   -1.4981    0.7427    2.8980 C   0  0  0  0  0  0  0  0  0  0  0  0
   -1.4827    1.3654    1.5890 N   0  0  0  0  0  0  0  0  0  0  0  0
   -2.6651    1.8739    0.8967 C   0  0  0  0  0  0  0  0  0  0  0  0
   -2.9389    1.0488   -0.3318 C   0  0  0  0  0  0  0  0  0  0  0  0
   -3.4518   -0.2516   -0.2019 C   0  0  0  0  0  0  0  0  0  0  0  0
   -3.6830   -1.0545   -1.3400 C   0  0  0  0  0  0  0  0  0  0  0  0
   -3.3808   -0.5211   -2.6205 C   0  0  0  0  0  0  0  0  0  0  0  0
   -3.5954   -1.2933   -3.7676 C   0  0  0  0  0  0  0  0  0  0  0  0
   -4.1043   -2.5815   -3.6408 C   0  0  0  0  0  0  0  0  0  0  0  0
   -4.3901   -3.0835   -2.4136 N   0  0  0  0  0  0  0  0  0  0  0  0
   -4.2014   -2.3760   -1.2660 C   0  0  0  0  0  0  0  0  0  0  0  0
   -4.5411   -3.0106   -0.0258 N   0  0  0  0  0  0  0  0  0  0  0  0
   -2.8639    0.7768   -2.7395 C   0  0  0  0  0  0  0  0  0  0  0  0
   -2.6424    1.5539   -1.6039 C   0  0  0  0  0  0  0  0  0  0  0  0
   -0.1487    1.4954    1.1374 C   0  0  0  0  0  0  0  0  0  0  0  0
    0.1457    1.9465   -0.0012 O   0  0  0  0  0  0  0  0  0  0  0  0
    1.5772    2.0882    2.7621 N   0  0  0  0  0  0  0  0  0  0  0  0
    2.7569    2.8132    1.7022 S   0  0  0  0  0  6  0  0  0  0  0  0
    2.0779    3.7932    0.7875 O   0  0  0  0  0  0  0  0  0  0  0  0
    3.7641    3.5620    2.5288 O   0  0  0  0  0  0  0  0  0  0  0  0
    3.6079    1.6093    0.7485 C   0  0  0  0  0  0  0  0  0  0  0  0
    4.5004    0.6700    1.2607 C   0  0  0  0  0  0  0  0  0  0  0  0
    4.9880   -0.1748    0.2631 C   0  0  0  0  0  0  0  0  0  0  0  0
    4.4884    0.0946   -0.9988 C   0  0  0  0  0  0  0  0  0  0  0  0
    3.4226    1.3899   -0.9208 S   0  0  0  0  0  0  0  0  0  0  0  0
    4.8718   -0.6600   -2.1015 C   0  0  0  0  0  0  0  0  0  0  0  0
    5.7841   -1.7049   -1.8929 C   0  0  0  0  0  0  0  0  0  0  0  0
    6.2756   -1.9555   -0.5958 C   0  0  0  0  0  0  0  0  0  0  0  0
    5.8702   -1.1886    0.4593 N   0  0  0  0  0  0  0  0  0  0  0  0
    1.5359    0.2514    1.6443 H   0  0  0  0  0  0  0  0  0  0  0  0
    0.2479    0.4609    4.1961 H   0  0  0  0  0  0  0  0  0  0  0  0
   -0.0037   -0.8325    2.9701 H   0  0  0  0  0  0  0  0  0  0  0  0
   -2.2080   -0.1122    2.9132 H   0  0  0  0  0  0  0  0  0  0  0  0
   -1.7931    1.4939    3.6622 H   0  0  0  0  0  0  0  0  0  0  0  0
   -2.5102    2.9440    0.6382 H   0  0  0  0  0  0  0  0  0  0  0  0
   -3.5478    1.8263    1.5712 H   0  0  0  0  0  0  0  0  0  0  0  0
   -3.6549   -0.6085    0.7947 H   0  0  0  0  0  0  0  0  0  0  0  0
   -3.3706   -0.9043   -4.7537 H   0  0  0  0  0  0  0  0  0  0  0  0
   -4.2733   -3.1868   -4.5214 H   0  0  0  0  0  0  0  0  0  0  0  0
   -4.9113   -3.9870   -0.0374 H   0  0  0  0  0  0  0  0  0  0  0  0
   -4.4511   -2.5566    0.9062 H   0  0  0  0  0  0  0  0  0  0  0  0
   -2.6270    1.1900   -3.7130 H   0  0  0  0  0  0  0  0  0  0  0  0
   -2.2343    2.5506   -1.7178 H   0  0  0  0  0  0  0  0  0  0  0  0
    2.1273    1.6858    3.5559 H   0  0  0  0  0  0  0  0  0  0  0  0
    4.7741    0.5991    2.3053 H   0  0  0  0  0  0  0  0  0  0  0  0
    4.4795   -0.4498   -3.0880 H   0  0  0  0  0  0  0  0  0  0  0  0
    6.1086   -2.3165   -2.7247 H   0  0  0  0  0  0  0  0  0  0  0  0
    6.9787   -2.7612   -0.4327 H   0  0  0  0  0  0  0  0  0  0  0  0
  1  2  1  0
  2  3  1  0
  3  4  1  0
  4  5  1  0
  5  6  1  0
  6  7  2  0
  7  8  1  0
  8  9  2  0
  9 10  1  0
 10 11  2  0
 11 12  1  0
 12 13  2  0
 13 14  1  0
  9 15  1  0
 15 16  2  0
  4 17  1  0
 17 18  2  0
  1 19  1  0
 19 20  1  0
 20 21  2  0
 20 22  2  0
 20 23  1  0
 23 24  2  0
 24 25  1  0
 25 26  2  0
 26 27  1  0
 26 28  1  0
 28 29  2  0
 29 30  1  0
 30 31  2  0
 17  1  1  0
 27 23  1  0
 16  6  1  0
 31 25  1  0
 13  8  1  0
  1 32  1  6
  2 33  1  0
  2 34  1  0
  3 35  1  0
  3 36  1  0
  5 37  1  0
  5 38  1  0
  7 39  1  0
 10 40  1  0
 11 41  1  0
 14 42  1  0
 14 43  1  0
 15 44  1  0
 16 45  1  0
 19 46  1  0
 24 47  1  0
 28 48  1  0
 29 49  1  0
 30 50  1  0
M  END
$$$$
