
     RDKit          3D

 33 35  0  0  0  0  0  0  0  0999 V2000
   -3.2190    2.8273    0.9296 N   0  0  0  0  0  0  0  0  0  0  0  0
   -3.5004    1.9467   -0.1614 C   0  0  0  0  0  0  0  0  0  0  0  0
   -4.3439    2.3261   -1.0707 N   0  0  0  0  0  0  0  0  0  0  0  0
   -2.8265    0.6264   -0.2486 C   0  0  0  0  0  0  0  0  0  0  0  0
   -1.4850    0.4912    0.1484 C   0  0  0  0  0  0  0  0  0  0  0  0
   -0.8319   -0.7566    0.0817 C   0  0  0  0  0  0  0  0  0  0  0  0
   -1.5446   -1.8778   -0.4166 C   0  0  0  0  0  0  0  0  0  0  0  0
   -0.9088   -3.1231   -0.5201 C   0  0  0  0  0  0  0  0  0  0  0  0
    0.4229   -3.2654   -0.1344 C   0  0  0  0  0  0  0  0  0  0  0  0
    1.1317   -2.1718    0.3618 C   0  0  0  0  0  0  0  0  0  0  0  0
    0.5217   -0.9109    0.4725 C   0  0  0  0  0  0  0  0  0  0  0  0
    1.2610    0.1845    1.0401 N   0  0  0  0  0  0  0  0  0  0  0  0
    2.5885    0.5339    0.6259 C   0  0  0  0  0  0  0  0  0  0  0  0
    3.2803    1.4812    1.3150 N   0  0  0  0  0  0  0  0  0  0  0  0
    4.5326    1.8480    0.9370 C   0  0  0  0  0  0  0  0  0  0  0  0
    5.1247    1.2544   -0.1767 C   0  0  0  0  0  0  0  0  0  0  0  0
    4.4013    0.2916   -0.8785 C   0  0  0  0  0  0  0  0  0  0  0  0
    3.1515   -0.0478   -0.4693 N   0  0  0  0  0  0  0  0  0  0  0  0
   -2.8829   -1.7386   -0.8084 C   0  0  0  0  0  0  0  0  0  0  0  0
   -3.5185   -0.4999   -0.7216 C   0  0  0  0  0  0  0  0  0  0  0  0
   -2.6155    2.5259    1.7264 H   0  0  0  0  0  0  0  0  0  0  0  0
   -3.6602    3.7731    0.9710 H   0  0  0  0  0  0  0  0  0  0  0  0
   -4.5802    1.7426   -1.9039 H   0  0  0  0  0  0  0  0  0  0  0  0
   -0.9491    1.3715    0.4765 H   0  0  0  0  0  0  0  0  0  0  0  0
   -1.4423   -3.9866   -0.8995 H   0  0  0  0  0  0  0  0  0  0  0  0
    0.9060   -4.2310   -0.2110 H   0  0  0  0  0  0  0  0  0  0  0  0
    2.1557   -2.3132    0.6833 H   0  0  0  0  0  0  0  0  0  0  0  0
    0.8105    0.7632    1.7843 H   0  0  0  0  0  0  0  0  0  0  0  0
    5.0667    2.6013    1.5004 H   0  0  0  0  0  0  0  0  0  0  0  0
    6.1213    1.5365   -0.4906 H   0  0  0  0  0  0  0  0  0  0  0  0
    4.8314   -0.1848   -1.7493 H   0  0  0  0  0  0  0  0  0  0  0  0
   -3.4400   -2.5901   -1.1811 H   0  0  0  0  0  0  0  0  0  0  0  0
   -4.5590   -0.4279   -1.0120 H   0  0  0  0  0  0  0  0  0  0  0  0
  1  2  1  0
  2  3  2  3
  2  4  1  0
  4  5  2  0
  5  6  1  0
  6  7  2  0
  7  8  1  0
  8  9  2  0
  9 10  1  0
 10 11  2  0
 11 12  1  0
 12 13  1  0
 13 14  2  0
 14 15  1  0
 15 16  2  0
 16 17  1  0
 17 18  2  0
  7 19  1  0
 19 20  2  0
 20  4  1  0
 11  6  1  0
 18 13  1  0
  1 21  1  0
  1 22  1  0
  3 23  1  0
  5 24  1  0
  8 25  1  0
  9 26  1  0
 10 27  1  0
 12 28  1  0
 15 29  1  0
 16 30  1  0
 17 31  1  0
 19 32  1  0
 20 33  1  0
M  END
$$$$
