
     RDKit          3D

 46 49  0  0  0  0  0  0  0  0999 V2000
    0.3566   -3.4442   -1.8860 C   0  0  0  0  0  0  0  0  0  0  0  0
    1.0309   -2.4233   -1.0646 N   0  0  0  0  0  0  0  0  0  0  0  0
    2.4050   -2.3717   -1.0189 C   0  0  0  0  0  0  0  0  0  0  0  0
    3.0994   -3.2070   -1.6620 O   0  0  0  0  0  0  0  0  0  0  0  0
    3.0629   -1.3880   -0.2657 C   0  0  0  0  0  0  0  0  0  0  0  0
    4.4665   -1.3865   -0.2197 O   0  0  0  0  0  0  0  0  0  0  0  0
    5.2668   -0.2599    0.0181 C   0  0  0  0  0  0  0  0  0  0  0  0
    6.4049   -0.4024    0.8217 C   0  0  0  0  0  0  0  0  0  0  0  0
    7.2315    0.6955    1.0785 C   0  0  0  0  0  0  0  0  0  0  0  0
    6.9335    1.9417    0.5206 C   0  0  0  0  0  0  0  0  0  0  0  0
    7.7372    3.0052    0.7682 F   0  0  0  0  0  0  0  0  0  0  0  0
    5.8136    2.0884   -0.3030 C   0  0  0  0  0  0  0  0  0  0  0  0
    4.9832    0.9927   -0.5624 C   0  0  0  0  0  0  0  0  0  0  0  0
    3.9353    1.1442   -1.4105 F   0  0  0  0  0  0  0  0  0  0  0  0
    2.3037   -0.4570    0.4535 C   0  0  0  0  0  0  0  0  0  0  0  0
    0.9128   -0.4919    0.3769 C   0  0  0  0  0  0  0  0  0  0  0  0
    0.2820   -1.4820   -0.4000 C   0  0  0  0  0  0  0  0  0  0  0  0
   -1.0787   -1.4906   -0.4767 N   0  0  0  0  0  0  0  0  0  0  0  0
   -1.8366   -0.5730    0.1805 C   0  0  0  0  0  0  0  0  0  0  0  0
   -3.2649   -0.6253    0.0712 N   0  0  0  0  0  0  0  0  0  0  0  0
   -4.1427    0.3505    0.7262 C   0  0  0  0  0  0  0  0  0  0  0  0
   -5.5957   -0.1479    0.7374 C   0  0  0  0  0  0  0  0  0  0  0  0
   -6.5386    0.9131    1.3526 C   0  0  0  0  0  0  0  0  0  0  0  0
   -5.9378    2.1927    1.4839 O   0  0  0  0  0  0  0  0  0  0  0  0
   -5.3171    2.5665    0.2699 C   0  0  0  0  0  0  0  0  0  0  0  0
   -4.0590    1.7161    0.0141 C   0  0  0  0  0  0  0  0  0  0  0  0
   -1.2333    0.3801    0.9410 N   0  0  0  0  0  0  0  0  0  0  0  0
    0.1179    0.4390    1.0523 C   0  0  0  0  0  0  0  0  0  0  0  0
    0.1024   -3.0152   -2.8781 H   0  0  0  0  0  0  0  0  0  0  0  0
    0.9927   -4.3426   -2.0324 H   0  0  0  0  0  0  0  0  0  0  0  0
   -0.5726   -3.8001   -1.3917 H   0  0  0  0  0  0  0  0  0  0  0  0
    6.6422   -1.3647    1.2572 H   0  0  0  0  0  0  0  0  0  0  0  0
    8.1035    0.5786    1.7090 H   0  0  0  0  0  0  0  0  0  0  0  0
    5.5947    3.0497   -0.7498 H   0  0  0  0  0  0  0  0  0  0  0  0
    2.7934    0.2871    1.0698 H   0  0  0  0  0  0  0  0  0  0  0  0
   -3.6844   -1.4118   -0.4757 H   0  0  0  0  0  0  0  0  0  0  0  0
   -3.8221    0.4712    1.7860 H   0  0  0  0  0  0  0  0  0  0  0  0
   -5.9195   -0.3581   -0.3063 H   0  0  0  0  0  0  0  0  0  0  0  0
   -5.6652   -1.0968    1.3132 H   0  0  0  0  0  0  0  0  0  0  0  0
   -7.4724    0.9916    0.7523 H   0  0  0  0  0  0  0  0  0  0  0  0
   -6.8382    0.5748    2.3672 H   0  0  0  0  0  0  0  0  0  0  0  0
   -6.0280    2.4775   -0.5846 H   0  0  0  0  0  0  0  0  0  0  0  0
   -5.0270    3.6367    0.3325 H   0  0  0  0  0  0  0  0  0  0  0  0
   -3.1631    2.2623    0.3809 H   0  0  0  0  0  0  0  0  0  0  0  0
   -3.9423    1.5712   -1.0826 H   0  0  0  0  0  0  0  0  0  0  0  0
    0.5667    1.2132    1.6622 H   0  0  0  0  0  0  0  0  0  0  0  0
  1  2  1  0
  2  3  1  0
  3  4  2  0
  3  5  1  0
  5  6  1  0
  6  7  1  0
  7  8  2  0
  8  9  1  0
  9 10  2  0
 10 11  1  0
 10 12  1  0
 12 13  2  0
 13 14  1  0
  5 15  2  0
 15 16  1  0
 16 17  2  0
 17 18  1  0
 18 19  2  0
 19 20  1  0
 20 21  1  0
 21 22  1  0
 22 23  1  0
 23 24  1  0
 24 25  1  0
 25 26  1  0
 19 27  1  0
 27 28  2  0
 17  2  1  0
 26 21  1  0
 13  7  1  0
 28 16  1  0
  1 29  1  0
  1 30  1  0
  1 31  1  0
  8 32  1  0
  9 33  1  0
 12 34  1  0
 15 35  1  0
 20 36  1  0
 21 37  1  0
 22 38  1  0
 22 39  1  0
 23 40  1  0
 23 41  1  0
 25 42  1  0
 25 43  1  0
 26 44  1  0
 26 45  1  0
 28 46  1  0
M  END
$$$$
