
     RDKit          3D

 27 28  0  0  0  0  0  0  0  0999 V2000
    3.6800    0.0657    2.4840 C   0  0  0  0  0  0  0  0  0  0  0  0
    3.0226    0.8733    1.4180 C   0  0  0  0  0  0  0  0  0  0  0  0
    3.0310    2.2247    1.3913 N   0  0  0  0  0  0  0  0  0  0  0  0
    2.3237    2.7365    0.3853 N   0  0  0  0  0  0  0  0  0  0  0  0
    1.7389    1.7941   -0.3849 C   0  0  0  0  0  0  0  0  0  0  0  0
    0.9219    2.1145   -1.5149 N   0  0  0  0  0  0  0  0  0  0  0  0
    0.1371    0.8994   -2.4696 S   0  0  0  0  0  6  0  0  0  0  0  0
    1.1824    0.0095   -3.0823 O   0  0  0  0  0  0  0  0  0  0  0  0
   -0.6491    1.5594   -3.5667 O   0  0  0  0  0  0  0  0  0  0  0  0
   -0.9612   -0.0379   -1.4625 C   0  0  0  0  0  0  0  0  0  0  0  0
   -1.7065    0.5988   -0.4613 C   0  0  0  0  0  0  0  0  0  0  0  0
   -2.5731   -0.1410    0.3488 C   0  0  0  0  0  0  0  0  0  0  0  0
   -2.7050   -1.5243    0.1621 C   0  0  0  0  0  0  0  0  0  0  0  0
   -3.5907   -2.2814    0.9910 N   0  0  0  0  0  0  0  0  0  0  0  0
   -1.9633   -2.1600   -0.8438 C   0  0  0  0  0  0  0  0  0  0  0  0
   -1.0961   -1.4199   -1.6535 C   0  0  0  0  0  0  0  0  0  0  0  0
    2.0830    0.2383    0.1718 S   0  0  0  0  0  0  0  0  0  0  0  0
    4.0238   -0.9037    2.0666 H   0  0  0  0  0  0  0  0  0  0  0  0
    4.5563    0.6135    2.8895 H   0  0  0  0  0  0  0  0  0  0  0  0
    2.9557   -0.1242    3.3029 H   0  0  0  0  0  0  0  0  0  0  0  0
    0.7757    3.1170   -1.7671 H   0  0  0  0  0  0  0  0  0  0  0  0
   -1.6144    1.6663   -0.3061 H   0  0  0  0  0  0  0  0  0  0  0  0
   -3.1409    0.3628    1.1208 H   0  0  0  0  0  0  0  0  0  0  0  0
   -3.6960   -3.3122    0.8593 H   0  0  0  0  0  0  0  0  0  0  0  0
   -4.1475   -1.8168    1.7426 H   0  0  0  0  0  0  0  0  0  0  0  0
   -2.0570   -3.2273   -0.9999 H   0  0  0  0  0  0  0  0  0  0  0  0
   -0.5314   -1.9254   -2.4262 H   0  0  0  0  0  0  0  0  0  0  0  0
  1  2  1  0
  2  3  2  0
  3  4  1  0
  4  5  2  0
  5  6  1  0
  6  7  1  0
  7  8  2  0
  7  9  2  0
  7 10  1  0
 10 11  2  0
 11 12  1  0
 12 13  2  0
 13 14  1  0
 13 15  1  0
 15 16  2  0
  5 17  1  0
 17  2  1  0
 16 10  1  0
  1 18  1  0
  1 19  1  0
  1 20  1  0
  6 21  1  0
 11 22  1  0
 12 23  1  0
 14 24  1  0
 14 25  1  0
 15 26  1  0
 16 27  1  0
M  END
$$$$
