
     RDKit          3D

 38 40  0  0  0  0  0  0  0  0999 V2000
   -3.9635    1.9381    0.2699 C   0  0  0  0  0  0  0  0  0  0  0  0
   -3.0877    1.2252   -0.7026 C   0  0  0  0  0  0  0  0  0  0  0  0
   -3.2913    1.3576   -1.9399 O   0  0  0  0  0  0  0  0  0  0  0  0
   -2.0822    0.3764   -0.2265 O   0  0  0  0  0  0  0  0  0  0  0  0
   -1.1432   -0.2963   -1.0704 C   0  0  1  0  0  0  0  0  0  0  0  0
   -0.1338    0.7077   -1.6512 C   0  0  0  0  0  0  0  0  0  0  0  0
    0.5058    1.5038   -0.5515 C   0  0  0  0  0  0  0  0  0  0  0  0
    0.1527    2.8426   -0.3168 C   0  0  0  0  0  0  0  0  0  0  0  0
    0.7249    3.5404    0.7511 C   0  0  0  0  0  0  0  0  0  0  0  0
    1.6417    2.9038    1.5926 C   0  0  0  0  0  0  0  0  0  0  0  0
    1.9862    1.5677    1.3686 C   0  0  0  0  0  0  0  0  0  0  0  0
    1.4137    0.8649    0.2980 C   0  0  0  0  0  0  0  0  0  0  0  0
    1.7614   -0.5027    0.0499 N   0  0  0  0  0  0  0  0  0  0  0  0
    3.0946   -0.8187   -0.4065 C   0  0  0  0  0  0  0  0  0  0  0  0
    3.3665   -2.0433   -1.0932 N   0  0  0  0  0  0  0  0  0  0  0  0
    4.0333    0.0056   -0.2355 O   0  0  0  0  0  0  0  0  0  0  0  0
    0.7748   -1.5376    0.2470 C   0  0  0  0  0  0  0  0  0  0  0  0
    1.1441   -2.6608    1.0117 C   0  0  0  0  0  0  0  0  0  0  0  0
    0.2511   -3.7065    1.2333 C   0  0  0  0  0  0  0  0  0  0  0  0
   -1.0331   -3.6479    0.7042 C   0  0  0  0  0  0  0  0  0  0  0  0
   -1.4312   -2.5403   -0.0425 C   0  0  0  0  0  0  0  0  0  0  0  0
   -0.5502   -1.4679   -0.2907 C   0  0  0  0  0  0  0  0  0  0  0  0
   -4.2582    2.9288   -0.1360 H   0  0  0  0  0  0  0  0  0  0  0  0
   -4.8741    1.3330    0.4601 H   0  0  0  0  0  0  0  0  0  0  0  0
   -3.4198    2.0906    1.2257 H   0  0  0  0  0  0  0  0  0  0  0  0
   -1.6897   -0.7309   -1.9385 H   0  0  0  0  0  0  0  0  0  0  0  0
   -0.6516    1.3859   -2.3633 H   0  0  0  0  0  0  0  0  0  0  0  0
    0.6410    0.1700   -2.2404 H   0  0  0  0  0  0  0  0  0  0  0  0
   -0.5677    3.3415   -0.9530 H   0  0  0  0  0  0  0  0  0  0  0  0
    0.4533    4.5728    0.9298 H   0  0  0  0  0  0  0  0  0  0  0  0
    2.0818    3.4444    2.4206 H   0  0  0  0  0  0  0  0  0  0  0  0
    2.6903    1.0772    2.0288 H   0  0  0  0  0  0  0  0  0  0  0  0
    4.3418   -2.2719   -1.3875 H   0  0  0  0  0  0  0  0  0  0  0  0
    2.5992   -2.6944   -1.3692 H   0  0  0  0  0  0  0  0  0  0  0  0
    2.1355   -2.7220    1.4430 H   0  0  0  0  0  0  0  0  0  0  0  0
    0.5556   -4.5631    1.8208 H   0  0  0  0  0  0  0  0  0  0  0  0
   -1.7276   -4.4592    0.8809 H   0  0  0  0  0  0  0  0  0  0  0  0
   -2.4445   -2.5145   -0.4260 H   0  0  0  0  0  0  0  0  0  0  0  0
  1  2  1  0
  2  3  2  0
  2  4  1  0
  4  5  1  0
  5  6  1  0
  6  7  1  0
  7  8  2  0
  8  9  1  0
  9 10  2  0
 10 11  1  0
 11 12  2  0
 12 13  1  0
 13 14  1  0
 14 15  1  0
 14 16  2  0
 13 17  1  0
 17 18  2  0
 18 19  1  0
 19 20  2  0
 20 21  1  0
 21 22  2  0
 22  5  1  0
 12  7  1  0
 22 17  1  0
  1 23  1  0
  1 24  1  0
  1 25  1  0
  5 26  1  6
  6 27  1  0
  6 28  1  0
  8 29  1  0
  9 30  1  0
 10 31  1  0
 11 32  1  0
 15 33  1  0
 15 34  1  0
 18 35  1  0
 19 36  1  0
 20 37  1  0
 21 38  1  0
M  END
$$$$
