
     RDKit          3D

 44 45  0  0  0  0  0  0  0  0999 V2000
   -6.0162   -0.4674    0.6742 C   0  0  0  0  0  0  0  0  0  0  0  0
   -5.4517    0.4668   -0.4189 C   0  0  0  0  0  0  0  0  0  0  0  0
   -6.3440    0.3208   -1.6700 C   0  0  0  0  0  0  0  0  0  0  0  0
   -5.5135    1.9365    0.0565 C   0  0  0  0  0  0  0  0  0  0  0  0
   -4.0717    0.0621   -0.7903 N   0  0  0  0  0  0  0  0  0  0  0  0
   -3.0461    0.3031    0.2402 C   0  0  0  0  0  0  0  0  0  0  0  0
   -1.7678   -0.4870   -0.0938 C   0  0  0  0  0  0  0  0  0  0  0  0
   -1.1756    0.0150   -1.2642 O   0  0  0  0  0  0  0  0  0  0  0  0
   -0.7499   -0.4433    1.0577 C   0  0  0  0  0  0  0  0  0  0  0  0
   -0.1640    1.2566    1.4213 S   0  0  0  0  0  0  0  0  0  0  0  0
    1.3580    1.1201    0.4867 C   0  0  0  0  0  0  0  0  0  0  0  0
    2.4958    0.5994    0.9908 N   0  0  0  0  0  0  0  0  0  0  0  0
    3.5116    0.6318    0.0851 C   0  0  0  0  0  0  0  0  0  0  0  0
    3.1805    1.1912   -1.1490 C   0  0  0  0  0  0  0  0  0  0  0  0
    1.5650    1.6554   -1.0908 S   0  0  0  0  0  0  0  0  0  0  0  0
    4.8505    0.1121    0.4072 C   0  0  0  0  0  0  0  0  0  0  0  0
    5.2298   -0.4546    1.6198 C   0  0  0  0  0  0  0  0  0  0  0  0
    6.5683   -0.8652    1.6476 C   0  0  0  0  0  0  0  0  0  0  0  0
    7.2471   -0.6231    0.4568 C   0  0  0  0  0  0  0  0  0  0  0  0
    6.1802    0.1009   -0.6271 S   0  0  0  0  0  0  0  0  0  0  0  0
    8.6600   -0.9472    0.1932 C   0  0  0  0  0  0  0  0  0  0  0  0
    9.2597   -0.6545   -1.0702 N   0  0  0  0  0  0  0  0  0  0  0  0
    9.3536   -1.4911    1.0937 O   0  0  0  0  0  0  0  0  0  0  0  0
   -7.1083   -0.3054    0.8038 H   0  0  0  0  0  0  0  0  0  0  0  0
   -5.8496   -1.5303    0.3962 H   0  0  0  0  0  0  0  0  0  0  0  0
   -5.5469   -0.2809    1.6615 H   0  0  0  0  0  0  0  0  0  0  0  0
   -7.4012    0.5774   -1.4407 H   0  0  0  0  0  0  0  0  0  0  0  0
   -6.3100   -0.7237   -2.0486 H   0  0  0  0  0  0  0  0  0  0  0  0
   -5.9952    0.9952   -2.4817 H   0  0  0  0  0  0  0  0  0  0  0  0
   -4.9879    2.0685    1.0257 H   0  0  0  0  0  0  0  0  0  0  0  0
   -6.5681    2.2552    0.2040 H   0  0  0  0  0  0  0  0  0  0  0  0
   -5.0453    2.6072   -0.6955 H   0  0  0  0  0  0  0  0  0  0  0  0
   -3.7836    0.5964   -1.6447 H   0  0  0  0  0  0  0  0  0  0  0  0
   -3.4019   -0.0265    1.2366 H   0  0  0  0  0  0  0  0  0  0  0  0
   -2.8077    1.3885    0.2927 H   0  0  0  0  0  0  0  0  0  0  0  0
   -2.0473   -1.5585   -0.2359 H   0  0  0  0  0  0  0  0  0  0  0  0
   -1.5919   -0.4592   -2.0305 H   0  0  0  0  0  0  0  0  0  0  0  0
   -1.2238   -0.8452    1.9785 H   0  0  0  0  0  0  0  0  0  0  0  0
    0.1041   -1.1146    0.8220 H   0  0  0  0  0  0  0  0  0  0  0  0
    3.8404    1.3121   -1.9976 H   0  0  0  0  0  0  0  0  0  0  0  0
    4.5613   -0.5703    2.4631 H   0  0  0  0  0  0  0  0  0  0  0  0
    7.0238   -1.3256    2.5147 H   0  0  0  0  0  0  0  0  0  0  0  0
    8.7171   -0.2046   -1.8398 H   0  0  0  0  0  0  0  0  0  0  0  0
   10.2624   -0.8908   -1.2402 H   0  0  0  0  0  0  0  0  0  0  0  0
  1  2  1  0
  2  3  1  0
  2  4  1  0
  2  5  1  0
  5  6  1  0
  6  7  1  0
  7  8  1  0
  7  9  1  0
  9 10  1  0
 10 11  1  0
 11 12  2  0
 12 13  1  0
 13 14  2  0
 14 15  1  0
 13 16  1  0
 16 17  2  0
 17 18  1  0
 18 19  2  0
 19 20  1  0
 19 21  1  0
 21 22  1  0
 21 23  2  0
 15 11  1  0
 20 16  1  0
  1 24  1  0
  1 25  1  0
  1 26  1  0
  3 27  1  0
  3 28  1  0
  3 29  1  0
  4 30  1  0
  4 31  1  0
  4 32  1  0
  5 33  1  0
  6 34  1  0
  6 35  1  0
  7 36  1  0
  8 37  1  0
  9 38  1  0
  9 39  1  0
 14 40  1  0
 17 41  1  0
 18 42  1  0
 22 43  1  0
 22 44  1  0
M  END
$$$$
