
     RDKit          3D

 56 59  0  0  0  0  0  0  0  0999 V2000
    0.8058    0.3393    0.7073 C   0  0  2  0  0  0  0  0  0  0  0  0
    1.8307    1.3556    1.1905 C   0  0  0  0  0  0  0  0  0  0  0  0
    3.1858    0.6313    1.0250 C   0  0  2  0  0  0  0  0  0  0  0  0
    4.2919    1.6119    0.5962 C   0  0  0  0  0  0  0  0  0  0  0  0
    2.9241   -0.6253    0.1042 C   0  0  2  0  0  0  0  0  0  0  0  0
    2.8639   -1.7328    0.9839 O   0  0  0  0  0  0  0  0  0  0  0  0
    4.0442   -0.8660   -0.9417 C   0  0  0  0  0  0  0  0  0  0  0  0
    4.2803   -0.0272   -1.7982 O   0  0  0  0  0  0  0  0  0  0  0  0
    4.9357   -2.0833   -0.9137 C   0  0  0  0  0  0  0  0  0  0  0  0
    5.9307   -2.0938    0.5646 Cl  0  0  0  0  0  0  0  0  0  0  0  0
    1.4818   -0.3471   -0.4909 C   0  0  2  0  0  0  0  0  0  0  0  0
    1.5686    0.5878   -1.7446 C   0  0  0  0  0  0  0  0  0  0  0  0
    0.6296   -1.6018   -0.8434 C   0  0  0  0  0  0  0  0  0  0  0  0
   -0.8650   -1.2690   -1.1243 C   0  0  2  0  0  0  0  0  0  0  0  0
   -1.0008   -0.6462   -2.3729 O   0  0  0  0  0  0  0  0  0  0  0  0
   -1.5257   -0.4235    0.0280 C   0  0  1  0  0  0  0  0  0  0  0  0
   -1.5484   -1.2680    1.1349 F   0  0  0  0  0  0  0  0  0  0  0  0
   -0.6404    0.8190    0.4214 C   0  0  1  0  0  0  0  0  0  0  0  0
   -1.2241    1.5342    1.6599 C   0  0  0  0  0  0  0  0  0  0  0  0
   -2.6686    1.9761    1.4281 C   0  0  2  0  0  0  0  0  0  0  0  0
   -3.1424    2.5672    2.5894 F   0  0  0  0  0  0  0  0  0  0  0  0
   -3.5081    0.7891    1.0019 C   0  0  0  0  0  0  0  0  0  0  0  0
   -4.6407    0.4858    1.6621 C   0  0  0  0  0  0  0  0  0  0  0  0
   -5.4390   -0.6824    1.2936 C   0  0  0  0  0  0  0  0  0  0  0  0
   -6.5058   -0.9411    1.9103 O   0  0  0  0  0  0  0  0  0  0  0  0
   -4.9836   -1.5566    0.2179 C   0  0  0  0  0  0  0  0  0  0  0  0
   -3.8728   -1.2723   -0.4611 C   0  0  0  0  0  0  0  0  0  0  0  0
   -3.0358   -0.0120   -0.2275 C   0  0  2  0  0  0  0  0  0  0  0  0
   -3.2473    0.8867   -1.4728 C   0  0  0  0  0  0  0  0  0  0  0  0
    0.7234   -0.4053    1.5363 H   0  0  0  0  0  0  0  0  0  0  0  0
    1.6567    1.6268    2.2549 H   0  0  0  0  0  0  0  0  0  0  0  0
    1.7716    2.2791    0.5734 H   0  0  0  0  0  0  0  0  0  0  0  0
    3.4915    0.2702    2.0345 H   0  0  0  0  0  0  0  0  0  0  0  0
    5.2695    1.0890    0.5362 H   0  0  0  0  0  0  0  0  0  0  0  0
    4.0674    2.0902   -0.3776 H   0  0  0  0  0  0  0  0  0  0  0  0
    4.3887    2.4167    1.3559 H   0  0  0  0  0  0  0  0  0  0  0  0
    2.7305   -2.5617    0.4592 H   0  0  0  0  0  0  0  0  0  0  0  0
    5.6245   -2.0725   -1.7859 H   0  0  0  0  0  0  0  0  0  0  0  0
    4.3403   -3.0158   -0.9841 H   0  0  0  0  0  0  0  0  0  0  0  0
    2.2503    1.4428   -1.5821 H   0  0  0  0  0  0  0  0  0  0  0  0
    0.6095    1.0395   -2.0426 H   0  0  0  0  0  0  0  0  0  0  0  0
    1.9251    0.0149   -2.6264 H   0  0  0  0  0  0  0  0  0  0  0  0
    0.6262   -2.3215    0.0016 H   0  0  0  0  0  0  0  0  0  0  0  0
    1.0746   -2.1300   -1.7146 H   0  0  0  0  0  0  0  0  0  0  0  0
   -1.3904   -2.2505   -1.1645 H   0  0  0  0  0  0  0  0  0  0  0  0
   -0.8391   -1.3398   -3.0648 H   0  0  0  0  0  0  0  0  0  0  0  0
   -0.6256    1.5661   -0.3923 H   0  0  0  0  0  0  0  0  0  0  0  0
   -0.6215    2.4395    1.8887 H   0  0  0  0  0  0  0  0  0  0  0  0
   -1.1815    0.8651    2.5479 H   0  0  0  0  0  0  0  0  0  0  0  0
   -2.6943    2.7459    0.6280 H   0  0  0  0  0  0  0  0  0  0  0  0
   -4.9781    1.0830    2.4996 H   0  0  0  0  0  0  0  0  0  0  0  0
   -5.5566   -2.4405   -0.0342 H   0  0  0  0  0  0  0  0  0  0  0  0
   -3.6122   -1.9303   -1.2798 H   0  0  0  0  0  0  0  0  0  0  0  0
   -3.1946    0.3096   -2.4188 H   0  0  0  0  0  0  0  0  0  0  0  0
   -2.5171    1.7164   -1.5290 H   0  0  0  0  0  0  0  0  0  0  0  0
   -4.2636    1.3376   -1.4471 H   0  0  0  0  0  0  0  0  0  0  0  0
  1  2  1  0
  2  3  1  0
  3  4  1  0
  3  5  1  0
  5  6  1  1
  5  7  1  0
  7  8  2  0
  7  9  1  0
  9 10  1  0
  5 11  1  0
 11 12  1  6
 11 13  1  0
 13 14  1  0
 14 15  1  0
 14 16  1  0
 16 17  1  1
 16 18  1  0
 18 19  1  0
 19 20  1  0
 20 21  1  0
 20 22  1  0
 22 23  2  0
 23 24  1  0
 24 25  2  0
 24 26  1  0
 26 27  2  0
 27 28  1  0
 28 29  1  6
 11  1  1  0
 28 16  1  0
 18  1  1  0
 28 22  1  0
  1 30  1  1
  2 31  1  0
  2 32  1  0
  3 33  1  1
  4 34  1  0
  4 35  1  0
  4 36  1  0
  6 37  1  0
  9 38  1  0
  9 39  1  0
 12 40  1  0
 12 41  1  0
 12 42  1  0
 13 43  1  0
 13 44  1  0
 14 45  1  6
 15 46  1  0
 18 47  1  6
 19 48  1  0
 19 49  1  0
 20 50  1  6
 23 51  1  0
 26 52  1  0
 27 53  1  0
 29 54  1  0
 29 55  1  0
 29 56  1  0
M  END
$$$$
