
     RDKit          3D

 48 50  0  0  0  0  0  0  0  0999 V2000
    5.3607    1.2412    1.2383 C   0  0  0  0  0  0  0  0  0  0  0  0
    5.1927    0.1654    0.1717 C   0  0  0  0  0  0  0  0  0  0  0  0
    3.9138    0.2695   -0.4504 O   0  0  0  0  0  0  0  0  0  0  0  0
    2.7235   -0.1612    0.1488 C   0  0  0  0  0  0  0  0  0  0  0  0
    2.7553   -0.6902    1.2938 O   0  0  0  0  0  0  0  0  0  0  0  0
    1.4122    0.0461   -0.5278 C   0  0  0  0  0  0  0  0  0  0  0  0
    1.2884    0.1276   -1.8731 C   0  0  0  0  0  0  0  0  0  0  0  0
    2.4427   -0.1093   -2.8124 C   0  0  0  0  0  0  0  0  0  0  0  0
    0.0191    0.4716   -2.4466 N   0  0  0  0  0  0  0  0  0  0  0  0
   -1.0960    0.8933   -1.6489 C   0  0  0  0  0  0  0  0  0  0  0  0
   -2.2791    1.4998   -2.3586 C   0  0  0  0  0  0  0  0  0  0  0  0
   -1.0491    0.7456   -0.3048 C   0  0  0  0  0  0  0  0  0  0  0  0
    0.1724    0.1212    0.3531 C   0  0  0  0  0  0  0  0  0  0  0  0
   -0.1841   -1.2523    0.8901 C   0  0  0  0  0  0  0  0  0  0  0  0
   -0.2057   -1.5047    2.2839 C   0  0  0  0  0  0  0  0  0  0  0  0
   -0.5523   -2.7821    2.7836 C   0  0  0  0  0  0  0  0  0  0  0  0
   -0.8879   -3.8269    1.9032 C   0  0  0  0  0  0  0  0  0  0  0  0
   -0.8633   -3.5466    0.5424 C   0  0  0  0  0  0  0  0  0  0  0  0
   -1.1470   -4.3557   -0.4873 N   0  0  0  0  0  0  0  0  0  0  0  0
   -0.9786   -3.6036   -1.5466 O   0  0  0  0  0  0  0  0  0  0  0  0
   -0.6097   -2.3745   -1.2822 N   0  0  0  0  0  0  0  0  0  0  0  0
   -0.5309   -2.3249    0.0559 C   0  0  0  0  0  0  0  0  0  0  0  0
   -2.1859    1.1124    0.5823 C   0  0  0  0  0  0  0  0  0  0  0  0
   -1.9548    1.4692    1.7703 O   0  0  0  0  0  0  0  0  0  0  0  0
   -3.5070    1.0048    0.1309 O   0  0  0  0  0  0  0  0  0  0  0  0
   -4.6385    1.3926    0.9068 C   0  0  0  0  0  0  0  0  0  0  0  0
   -4.7696    2.9106    0.9408 C   0  0  0  0  0  0  0  0  0  0  0  0
    6.3812    1.1811    1.6715 H   0  0  0  0  0  0  0  0  0  0  0  0
    4.6194    1.0997    2.0522 H   0  0  0  0  0  0  0  0  0  0  0  0
    5.2193    2.2463    0.7877 H   0  0  0  0  0  0  0  0  0  0  0  0
    5.9746    0.3074   -0.6038 H   0  0  0  0  0  0  0  0  0  0  0  0
    5.3272   -0.8448    0.6159 H   0  0  0  0  0  0  0  0  0  0  0  0
    3.0184   -1.0088   -2.5076 H   0  0  0  0  0  0  0  0  0  0  0  0
    2.0772   -0.2910   -3.8445 H   0  0  0  0  0  0  0  0  0  0  0  0
    3.1027    0.7828   -2.8332 H   0  0  0  0  0  0  0  0  0  0  0  0
   -0.0721    0.4959   -3.4873 H   0  0  0  0  0  0  0  0  0  0  0  0
   -2.0121    1.7773   -3.3996 H   0  0  0  0  0  0  0  0  0  0  0  0
   -2.6100    2.4284   -1.8468 H   0  0  0  0  0  0  0  0  0  0  0  0
   -3.1111    0.7663   -2.4006 H   0  0  0  0  0  0  0  0  0  0  0  0
    0.4461    0.7850    1.2035 H   0  0  0  0  0  0  0  0  0  0  0  0
    0.0441   -0.7183    2.9849 H   0  0  0  0  0  0  0  0  0  0  0  0
   -0.5616   -2.9568    3.8516 H   0  0  0  0  0  0  0  0  0  0  0  0
   -1.1574   -4.8081    2.2718 H   0  0  0  0  0  0  0  0  0  0  0  0
   -4.5591    0.9873    1.9389 H   0  0  0  0  0  0  0  0  0  0  0  0
   -5.5505    0.9664    0.4384 H   0  0  0  0  0  0  0  0  0  0  0  0
   -4.8414    3.3074   -0.0940 H   0  0  0  0  0  0  0  0  0  0  0  0
   -5.6860    3.1939    1.5000 H   0  0  0  0  0  0  0  0  0  0  0  0
   -3.8902    3.3638    1.4440 H   0  0  0  0  0  0  0  0  0  0  0  0
  1  2  1  0
  2  3  1  0
  3  4  1  0
  4  5  2  0
  4  6  1  0
  6  7  2  0
  7  8  1  0
  7  9  1  0
  9 10  1  0
 10 11  1  0
 10 12  2  0
 12 13  1  0
 13 14  1  0
 14 15  2  0
 15 16  1  0
 16 17  2  0
 17 18  1  0
 18 19  2  0
 19 20  1  0
 20 21  1  0
 21 22  2  0
 12 23  1  0
 23 24  2  0
 23 25  1  0
 25 26  1  0
 26 27  1  0
 13  6  1  0
 22 14  1  0
 22 18  1  0
  1 28  1  0
  1 29  1  0
  1 30  1  0
  2 31  1  0
  2 32  1  0
  8 33  1  0
  8 34  1  0
  8 35  1  0
  9 36  1  0
 11 37  1  0
 11 38  1  0
 11 39  1  0
 13 40  1  0
 15 41  1  0
 16 42  1  0
 17 43  1  0
 26 44  1  0
 26 45  1  0
 27 46  1  0
 27 47  1  0
 27 48  1  0
M  END
$$$$
