
     RDKit          3D

 53 52  0  0  0  0  0  0  0  0999 V2000
   -6.3693    0.2436   -0.4167 C   0  0  0  0  0  0  0  0  0  0  0  0
   -6.7459   -0.8052    0.5550 C   0  0  0  0  0  0  0  0  0  0  0  0
   -5.7903   -1.5883    1.1966 O   0  0  0  0  0  0  0  0  0  0  0  0
   -7.9643   -0.9767    0.8248 O   0  0  0  0  0  0  0  0  0  0  0  0
   -5.1284    0.4617   -0.8915 C   0  0  0  0  0  0  0  0  0  0  0  0
   -4.9129    1.5895   -1.8626 C   0  0  0  0  0  0  0  0  0  0  0  0
   -3.9875   -0.4164   -0.5508 C   0  0  0  0  0  0  0  0  0  0  0  0
   -2.8841    0.0058    0.0957 C   0  0  0  0  0  0  0  0  0  0  0  0
   -2.7354    1.4315    0.5629 C   0  0  0  0  0  0  0  0  0  0  0  0
   -1.7671   -0.9721    0.3856 C   0  0  0  0  0  0  0  0  0  0  0  0
   -0.5384   -0.7380   -0.5234 C   0  0  2  0  0  0  0  0  0  0  0  0
   -0.8720   -1.0724   -1.9885 C   0  0  0  0  0  0  0  0  0  0  0  0
    0.6528   -1.5828   -0.0054 C   0  0  0  0  0  0  0  0  0  0  0  0
    1.9851   -1.3789   -0.7578 C   0  0  0  0  0  0  0  0  0  0  0  0
    2.4924    0.0750   -0.8187 C   0  0  0  0  0  0  0  0  0  0  0  0
    2.6783    0.7776    0.5456 C   0  0  0  0  0  0  0  0  0  0  0  0
    3.7462    0.1781    1.4931 C   0  0  1  0  0  0  0  0  0  0  0  0
    3.3048   -1.0785    1.9458 O   0  0  0  0  0  0  0  0  0  0  0  0
    5.1724    0.0570    0.8791 C   0  0  1  0  0  0  0  0  0  0  0  0
    5.7798    1.4236    0.4843 C   0  0  0  0  0  0  0  0  0  0  0  0
    5.2232    1.9059   -0.7083 O   0  0  0  0  0  0  0  0  0  0  0  0
    6.0990   -0.6248    1.8562 C   0  0  0  0  0  0  0  0  0  0  0  0
    6.3462   -0.1200    2.9408 O   0  0  0  0  0  0  0  0  0  0  0  0
   -7.1700    0.8926   -0.7546 H   0  0  0  0  0  0  0  0  0  0  0  0
   -6.0625   -2.2977    1.8665 H   0  0  0  0  0  0  0  0  0  0  0  0
   -3.9089    1.5234   -2.3335 H   0  0  0  0  0  0  0  0  0  0  0  0
   -5.6712    1.5480   -2.6735 H   0  0  0  0  0  0  0  0  0  0  0  0
   -5.0003    2.5615   -1.3330 H   0  0  0  0  0  0  0  0  0  0  0  0
   -4.0774   -1.4618   -0.8223 H   0  0  0  0  0  0  0  0  0  0  0  0
   -1.8281    1.5505    1.1920 H   0  0  0  0  0  0  0  0  0  0  0  0
   -3.6159    1.7289    1.1709 H   0  0  0  0  0  0  0  0  0  0  0  0
   -2.6349    2.1109   -0.3077 H   0  0  0  0  0  0  0  0  0  0  0  0
   -1.4740   -0.8472    1.4510 H   0  0  0  0  0  0  0  0  0  0  0  0
   -2.1147   -2.0245    0.2814 H   0  0  0  0  0  0  0  0  0  0  0  0
   -0.2689    0.3375   -0.4598 H   0  0  0  0  0  0  0  0  0  0  0  0
   -1.0989   -2.1540   -2.1018 H   0  0  0  0  0  0  0  0  0  0  0  0
   -1.7473   -0.4850   -2.3356 H   0  0  0  0  0  0  0  0  0  0  0  0
   -0.0265   -0.8059   -2.6547 H   0  0  0  0  0  0  0  0  0  0  0  0
    0.8168   -1.3663    1.0712 H   0  0  0  0  0  0  0  0  0  0  0  0
    0.3854   -2.6606   -0.0684 H   0  0  0  0  0  0  0  0  0  0  0  0
    2.7621   -2.0191   -0.2910 H   0  0  0  0  0  0  0  0  0  0  0  0
    1.8808   -1.7593   -1.7956 H   0  0  0  0  0  0  0  0  0  0  0  0
    3.4444    0.0890   -1.3854 H   0  0  0  0  0  0  0  0  0  0  0  0
    1.7862    0.6773   -1.4279 H   0  0  0  0  0  0  0  0  0  0  0  0
    2.9299    1.8419    0.3538 H   0  0  0  0  0  0  0  0  0  0  0  0
    1.7051    0.8065    1.0799 H   0  0  0  0  0  0  0  0  0  0  0  0
    3.8070    0.8779    2.3623 H   0  0  0  0  0  0  0  0  0  0  0  0
    3.5857   -1.1722    2.8935 H   0  0  0  0  0  0  0  0  0  0  0  0
    5.1324   -0.5933   -0.0205 H   0  0  0  0  0  0  0  0  0  0  0  0
    5.6003    2.1674    1.2900 H   0  0  0  0  0  0  0  0  0  0  0  0
    6.8852    1.3375    0.3624 H   0  0  0  0  0  0  0  0  0  0  0  0
    5.6398    1.3890   -1.4466 H   0  0  0  0  0  0  0  0  0  0  0  0
    6.5535   -1.5752    1.5954 H   0  0  0  0  0  0  0  0  0  0  0  0
  1  2  1  0
  2  3  1  0
  2  4  2  0
  1  5  2  0
  5  6  1  0
  5  7  1  0
  7  8  2  0
  8  9  1  0
  8 10  1  0
 10 11  1  0
 11 12  1  0
 11 13  1  0
 13 14  1  0
 14 15  1  0
 15 16  1  0
 16 17  1  0
 17 18  1  0
 17 19  1  0
 19 20  1  0
 20 21  1  0
 19 22  1  0
 22 23  2  0
  1 24  1  0
  3 25  1  0
  6 26  1  0
  6 27  1  0
  6 28  1  0
  7 29  1  0
  9 30  1  0
  9 31  1  0
  9 32  1  0
 10 33  1  0
 10 34  1  0
 11 35  1  6
 12 36  1  0
 12 37  1  0
 12 38  1  0
 13 39  1  0
 13 40  1  0
 14 41  1  0
 14 42  1  0
 15 43  1  0
 15 44  1  0
 16 45  1  0
 16 46  1  0
 17 47  1  1
 18 48  1  0
 19 49  1  6
 20 50  1  0
 20 51  1  0
 21 52  1  0
 22 53  1  0
M  END
$$$$
