
     RDKit          3D

 31 33  0  0  0  0  0  0  0  0999 V2000
   -1.9583   -2.3048    0.8655 C   0  0  0  0  0  0  0  0  0  0  0  0
   -1.7053   -1.1145   -0.0857 C   0  0  0  0  0  0  0  0  0  0  0  0
   -2.6965    0.0044    0.2865 C   0  0  0  0  0  0  0  0  0  0  0  0
   -2.4176    1.2556   -0.5249 C   0  0  0  0  0  0  0  0  0  0  0  0
   -0.9943    1.6764   -0.3260 C   0  0  0  0  0  0  0  0  0  0  0  0
   -0.6645    3.0360   -0.4128 C   0  0  0  0  0  0  0  0  0  0  0  0
    0.6595    3.4492   -0.2967 C   0  0  0  0  0  0  0  0  0  0  0  0
    0.9657    4.7680   -0.3720 F   0  0  0  0  0  0  0  0  0  0  0  0
    1.6725    2.5088   -0.1249 C   0  0  0  0  0  0  0  0  0  0  0  0
    1.3703    1.1341   -0.0628 C   0  0  0  0  0  0  0  0  0  0  0  0
    0.0193    0.7045   -0.1408 C   0  0  0  0  0  0  0  0  0  0  0  0
   -0.2908   -0.6381   -0.0446 N   0  0  0  0  0  0  0  0  0  0  0  0
    0.7224   -1.5635   -0.0261 C   0  0  0  0  0  0  0  0  0  0  0  0
    2.0736   -1.1896    0.0485 C   0  0  0  0  0  0  0  0  0  0  0  0
    3.1255   -2.2423    0.1141 C   0  0  0  0  0  0  0  0  0  0  0  0
    4.4765   -1.9044    0.1234 O   0  0  0  0  0  0  0  0  0  0  0  0
    2.8036   -3.4608    0.1607 O   0  0  0  0  0  0  0  0  0  0  0  0
    2.3924    0.1782    0.0527 C   0  0  0  0  0  0  0  0  0  0  0  0
    3.5950    0.5511    0.1442 O   0  0  0  0  0  0  0  0  0  0  0  0
   -1.5108   -2.1061    1.8629 H   0  0  0  0  0  0  0  0  0  0  0  0
   -3.0478   -2.4819    0.9953 H   0  0  0  0  0  0  0  0  0  0  0  0
   -1.5414   -3.2453    0.4513 H   0  0  0  0  0  0  0  0  0  0  0  0
   -1.9339   -1.4468   -1.1229 H   0  0  0  0  0  0  0  0  0  0  0  0
   -2.6102    0.2467    1.3700 H   0  0  0  0  0  0  0  0  0  0  0  0
   -3.7389   -0.3284    0.0870 H   0  0  0  0  0  0  0  0  0  0  0  0
   -3.1152    2.0574   -0.1971 H   0  0  0  0  0  0  0  0  0  0  0  0
   -2.5933    1.0563   -1.6044 H   0  0  0  0  0  0  0  0  0  0  0  0
   -1.4371    3.7782   -0.5731 H   0  0  0  0  0  0  0  0  0  0  0  0
    2.6953    2.8594   -0.0578 H   0  0  0  0  0  0  0  0  0  0  0  0
    0.4921   -2.6178   -0.0697 H   0  0  0  0  0  0  0  0  0  0  0  0
    5.1923   -2.6199    0.1675 H   0  0  0  0  0  0  0  0  0  0  0  0
  1  2  1  0
  2  3  1  0
  3  4  1  0
  4  5  1  0
  5  6  2  0
  6  7  1  0
  7  8  1  0
  7  9  2  0
  9 10  1  0
 10 11  2  0
 11 12  1  0
 12 13  1  0
 13 14  2  0
 14 15  1  0
 15 16  1  0
 15 17  2  0
 14 18  1  0
 18 19  2  0
 12  2  1  0
 11  5  1  0
 18 10  1  0
  1 20  1  0
  1 21  1  0
  1 22  1  0
  2 23  1  0
  3 24  1  0
  3 25  1  0
  4 26  1  0
  4 27  1  0
  6 28  1  0
  9 29  1  0
 13 30  1  0
 16 31  1  0
M  END
$$$$
