
     RDKit          3D

 44 47  0  0  0  0  0  0  0  0999 V2000
    0.6571    2.2221   -0.6366 C   0  0  2  0  0  0  0  0  0  0  0  0
    1.5264    3.4770   -0.3984 C   0  0  0  0  0  0  0  0  0  0  0  0
   -0.8195    2.6435   -0.5157 C   0  0  0  0  0  0  0  0  0  0  0  0
   -1.7749    1.4713   -0.7060 C   0  0  0  0  0  0  0  0  0  0  0  0
   -1.5049    0.3607    0.3380 C   0  0  1  0  0  0  0  0  0  0  0  0
   -2.4940   -0.8482    0.2399 C   0  0  1  0  0  0  0  0  0  0  0  0
   -3.9502   -0.4251   -0.0350 C   0  0  0  0  0  0  0  0  0  0  0  0
   -1.9599   -1.9368   -0.7411 C   0  0  0  0  0  0  0  0  0  0  0  0
   -3.0039   -2.5740   -1.4314 O   0  0  0  0  0  0  0  0  0  0  0  0
   -1.0880   -1.3562   -1.6895 O   0  0  0  0  0  0  0  0  0  0  0  0
    0.1397   -0.9554   -1.0933 C   0  0  2  0  0  0  0  0  0  0  0  0
    0.9465   -2.0990   -0.8815 O   0  0  0  0  0  0  0  0  0  0  0  0
    1.9551   -1.8467    0.0894 C   0  0  1  0  0  0  0  0  0  0  0  0
    2.7754   -3.1303    0.2379 C   0  0  0  0  0  0  0  0  0  0  0  0
    2.8743   -0.6731   -0.3498 C   0  0  0  0  0  0  0  0  0  0  0  0
    2.5016    0.6506    0.3500 C   0  0  0  0  0  0  0  0  0  0  0  0
    0.9815    1.0581    0.3624 C   0  0  2  0  0  0  0  0  0  0  0  0
   -0.0387   -0.1503    0.2353 C   0  0  1  0  0  0  0  0  0  0  0  0
    0.1403   -1.0961    1.2851 O   0  0  0  0  0  0  0  0  0  0  0  0
    1.4049   -1.5266    1.3665 O   0  0  0  0  0  0  0  0  0  0  0  0
    0.8409    1.8871   -1.6793 H   0  0  0  0  0  0  0  0  0  0  0  0
    1.6117    3.7003    0.6865 H   0  0  0  0  0  0  0  0  0  0  0  0
    1.0877    4.3650   -0.9026 H   0  0  0  0  0  0  0  0  0  0  0  0
    2.5383    3.3581   -0.8344 H   0  0  0  0  0  0  0  0  0  0  0  0
   -1.0019    3.1041    0.4815 H   0  0  0  0  0  0  0  0  0  0  0  0
   -1.0539    3.4089   -1.2883 H   0  0  0  0  0  0  0  0  0  0  0  0
   -2.8017    1.8742   -0.5823 H   0  0  0  0  0  0  0  0  0  0  0  0
   -1.6885    1.0852   -1.7435 H   0  0  0  0  0  0  0  0  0  0  0  0
   -1.6449    0.8170    1.3450 H   0  0  0  0  0  0  0  0  0  0  0  0
   -2.5156   -1.3224    1.2477 H   0  0  0  0  0  0  0  0  0  0  0  0
   -4.6386   -1.2781    0.1437 H   0  0  0  0  0  0  0  0  0  0  0  0
   -4.2494    0.3921    0.6555 H   0  0  0  0  0  0  0  0  0  0  0  0
   -4.0739   -0.0870   -1.0858 H   0  0  0  0  0  0  0  0  0  0  0  0
   -1.4096   -2.7171   -0.1575 H   0  0  0  0  0  0  0  0  0  0  0  0
   -3.4172   -3.2185   -0.7988 H   0  0  0  0  0  0  0  0  0  0  0  0
    0.6344   -0.3235   -1.8561 H   0  0  0  0  0  0  0  0  0  0  0  0
    2.1116   -3.9701    0.5352 H   0  0  0  0  0  0  0  0  0  0  0  0
    3.2647   -3.3896   -0.7256 H   0  0  0  0  0  0  0  0  0  0  0  0
    3.5556   -3.0081    1.0198 H   0  0  0  0  0  0  0  0  0  0  0  0
    2.8582   -0.5440   -1.4532 H   0  0  0  0  0  0  0  0  0  0  0  0
    3.9346   -0.8886   -0.0886 H   0  0  0  0  0  0  0  0  0  0  0  0
    3.1473    1.4356   -0.0809 H   0  0  0  0  0  0  0  0  0  0  0  0
    2.8393    0.5698    1.4077 H   0  0  0  0  0  0  0  0  0  0  0  0
    0.8020    1.4838    1.3767 H   0  0  0  0  0  0  0  0  0  0  0  0
  1  2  1  0
  1  3  1  0
  3  4  1  0
  4  5  1  0
  5  6  1  0
  6  7  1  0
  6  8  1  0
  8  9  1  0
  8 10  1  0
 10 11  1  0
 11 12  1  0
 12 13  1  0
 13 14  1  1
 13 15  1  0
 15 16  1  0
 16 17  1  0
 17 18  1  0
 18 19  1  1
 19 20  1  0
 17  1  1  0
 18  5  1  0
 18 11  1  0
 20 13  1  0
  1 21  1  6
  2 22  1  0
  2 23  1  0
  2 24  1  0
  3 25  1  0
  3 26  1  0
  4 27  1  0
  4 28  1  0
  5 29  1  1
  6 30  1  1
  7 31  1  0
  7 32  1  0
  7 33  1  0
  8 34  1  0
  9 35  1  0
 11 36  1  6
 14 37  1  0
 14 38  1  0
 14 39  1  0
 15 40  1  0
 15 41  1  0
 16 42  1  0
 16 43  1  0
 17 44  1  1
M  END
$$$$
