
     RDKit          3D

 53 56  0  0  0  0  0  0  0  0999 V2000
   -2.7335   -2.9255    2.7173 C   0  0  0  0  0  0  0  0  0  0  0  0
   -1.7294   -2.1995    1.8902 C   0  0  0  0  0  0  0  0  0  0  0  0
   -2.0031   -1.6310    0.7022 N   0  0  0  0  0  0  0  0  0  0  0  0
   -0.8049   -1.0976    0.3700 C   0  0  0  0  0  0  0  0  0  0  0  0
    0.1164   -1.2995    1.3349 N   0  0  0  0  0  0  0  0  0  0  0  0
   -0.4889   -1.9925    2.2495 O   0  0  0  0  0  0  0  0  0  0  0  0
   -0.5765   -0.1980   -0.8418 C   0  0  0  0  0  0  0  0  0  0  0  0
   -0.5124    1.2872   -0.3620 C   0  0  0  0  0  0  0  0  0  0  0  0
   -1.7849    1.7803    0.2991 C   0  0  0  0  0  0  0  0  0  0  0  0
   -2.7392    2.5070   -0.4351 C   0  0  0  0  0  0  0  0  0  0  0  0
   -3.9183    2.9444    0.1758 C   0  0  0  0  0  0  0  0  0  0  0  0
   -4.1517    2.6708    1.5255 C   0  0  0  0  0  0  0  0  0  0  0  0
   -3.2016    1.9679    2.2696 C   0  0  0  0  0  0  0  0  0  0  0  0
   -2.0205    1.5303    1.6634 C   0  0  0  0  0  0  0  0  0  0  0  0
    0.7327   -0.6002   -1.5955 C   0  0  0  0  0  0  0  0  0  0  0  0
    2.0290   -0.4246   -0.8320 C   0  0  0  0  0  0  0  0  0  0  0  0
    2.6326   -1.5198   -0.1938 C   0  0  0  0  0  0  0  0  0  0  0  0
    3.8384   -1.3626    0.4942 C   0  0  0  0  0  0  0  0  0  0  0  0
    4.4765   -0.1139    0.5432 C   0  0  0  0  0  0  0  0  0  0  0  0
    5.7159    0.0116    1.2635 N   0  0  0  0  0  0  0  0  0  0  0  0
    6.6277    1.4835    1.3770 S   0  0  0  0  0  6  0  0  0  0  0  0
    7.0355    2.0268   -0.1609 O   0  0  0  0  0  0  0  0  0  0  0  0
    7.8861    1.2298    2.1579 O   0  0  0  0  0  0  0  0  0  0  0  0
    5.8129    2.5272    2.0875 O   0  0  0  0  0  0  0  0  0  0  0  0
    3.8856    0.9776   -0.1198 C   0  0  0  0  0  0  0  0  0  0  0  0
    2.6793    0.8195   -0.8077 C   0  0  0  0  0  0  0  0  0  0  0  0
   -1.6974   -0.3724   -1.8612 C   0  0  0  0  0  0  0  0  0  0  0  0
   -1.9978    0.5479   -2.8021 N   0  0  0  0  0  0  0  0  0  0  0  0
   -2.8842   -0.0172   -3.5625 O   0  0  0  0  0  0  0  0  0  0  0  0
   -3.1112   -1.2341   -3.1389 C   0  0  0  0  0  0  0  0  0  0  0  0
   -4.0474   -2.1901   -3.7943 C   0  0  0  0  0  0  0  0  0  0  0  0
   -2.3585   -1.5346   -2.0649 N   0  0  0  0  0  0  0  0  0  0  0  0
   -2.2190   -3.6312    3.4024 H   0  0  0  0  0  0  0  0  0  0  0  0
   -3.4224   -3.4963    2.0600 H   0  0  0  0  0  0  0  0  0  0  0  0
   -3.3168   -2.1944    3.3144 H   0  0  0  0  0  0  0  0  0  0  0  0
    0.3149    1.4091    0.3696 H   0  0  0  0  0  0  0  0  0  0  0  0
   -0.2625    1.9484   -1.2211 H   0  0  0  0  0  0  0  0  0  0  0  0
   -2.5693    2.7451   -1.4766 H   0  0  0  0  0  0  0  0  0  0  0  0
   -4.6500    3.4993   -0.3972 H   0  0  0  0  0  0  0  0  0  0  0  0
   -5.0651    3.0103    1.9966 H   0  0  0  0  0  0  0  0  0  0  0  0
   -3.3785    1.7641    3.3178 H   0  0  0  0  0  0  0  0  0  0  0  0
   -1.2904    0.9976    2.2588 H   0  0  0  0  0  0  0  0  0  0  0  0
    0.8112   -0.0068   -2.5345 H   0  0  0  0  0  0  0  0  0  0  0  0
    0.6485   -1.6611   -1.9235 H   0  0  0  0  0  0  0  0  0  0  0  0
    2.1651   -2.4964   -0.2223 H   0  0  0  0  0  0  0  0  0  0  0  0
    4.2786   -2.2193    0.9889 H   0  0  0  0  0  0  0  0  0  0  0  0
    6.1098   -0.8270    1.7463 H   0  0  0  0  0  0  0  0  0  0  0  0
    7.3868    1.2270   -0.6277 H   0  0  0  0  0  0  0  0  0  0  0  0
    4.3471    1.9542   -0.1157 H   0  0  0  0  0  0  0  0  0  0  0  0
    2.2525    1.6703   -1.3236 H   0  0  0  0  0  0  0  0  0  0  0  0
   -3.4845   -2.8296   -4.5052 H   0  0  0  0  0  0  0  0  0  0  0  0
   -4.8321   -1.6316   -4.3460 H   0  0  0  0  0  0  0  0  0  0  0  0
   -4.5312   -2.8307   -3.0274 H   0  0  0  0  0  0  0  0  0  0  0  0
  1  2  1  0
  2  3  2  0
  3  4  1  0
  4  5  2  0
  5  6  1  0
  4  7  1  0
  7  8  1  0
  8  9  1  0
  9 10  2  0
 10 11  1  0
 11 12  2  0
 12 13  1  0
 13 14  2  0
  7 15  1  0
 15 16  1  0
 16 17  2  0
 17 18  1  0
 18 19  2  0
 19 20  1  0
 20 21  1  0
 21 22  1  0
 21 23  2  0
 21 24  2  0
 19 25  1  0
 25 26  2  0
  7 27  1  0
 27 28  2  0
 28 29  1  0
 29 30  1  0
 30 31  1  0
 30 32  2  0
  6  2  1  0
 14  9  1  0
 26 16  1  0
 32 27  1  0
  1 33  1  0
  1 34  1  0
  1 35  1  0
  8 36  1  0
  8 37  1  0
 10 38  1  0
 11 39  1  0
 12 40  1  0
 13 41  1  0
 14 42  1  0
 15 43  1  0
 15 44  1  0
 17 45  1  0
 18 46  1  0
 20 47  1  0
 22 48  1  0
 25 49  1  0
 26 50  1  0
 31 51  1  0
 31 52  1  0
 31 53  1  0
M  END
$$$$
