
     RDKit          3D

 45 48  0  0  0  0  0  0  0  0999 V2000
   -2.3364    1.0012    2.3905 C   0  0  0  0  0  0  0  0  0  0  0  0
   -1.2752    0.0734    2.2756 O   0  0  0  0  0  0  0  0  0  0  0  0
   -0.9428   -0.2364    0.9262 C   0  0  2  0  0  0  0  0  0  0  0  0
   -2.1608   -0.8025    0.1452 C   0  0  2  0  0  0  0  0  0  0  0  0
   -1.9511   -2.2485    0.0025 C   0  0  2  0  0  0  0  0  0  0  0  0
   -0.5786   -2.6086    0.5401 C   0  0  0  0  0  0  0  0  0  0  0  0
   -0.0065   -1.3480    0.9756 N   0  0  0  0  0  0  0  0  0  0  0  0
    1.2806   -0.8882    0.6007 C   0  0  0  0  0  0  0  0  0  0  0  0
    1.2748    0.3731    0.2425 C   0  0  0  0  0  0  0  0  0  0  0  0
   -0.1142    0.9418    0.2742 C   0  0  1  0  0  0  0  0  0  0  0  0
   -0.5362    1.3789   -1.1458 C   0  0  0  0  0  0  0  0  0  0  0  0
   -1.8882    1.8323   -1.1758 O   0  0  0  0  0  0  0  0  0  0  0  0
   -2.2804    3.1108   -0.7661 C   0  0  0  0  0  0  0  0  0  0  0  0
   -3.6597    3.4655   -0.8016 N   0  0  0  0  0  0  0  0  0  0  0  0
   -1.4297    3.9490   -0.3618 O   0  0  0  0  0  0  0  0  0  0  0  0
    2.5248    1.0626   -0.1190 C   0  0  0  0  0  0  0  0  0  0  0  0
    2.5112    2.2899   -0.4036 O   0  0  0  0  0  0  0  0  0  0  0  0
    3.8008    0.2933   -0.1286 C   0  0  0  0  0  0  0  0  0  0  0  0
    5.0100    0.9686   -0.5135 N   0  0  0  0  0  0  0  0  0  0  0  0
    3.8018   -1.0226    0.2264 C   0  0  0  0  0  0  0  0  0  0  0  0
    5.0762   -1.8308    0.2260 C   0  0  0  0  0  0  0  0  0  0  0  0
    2.5224   -1.6766    0.6326 C   0  0  0  0  0  0  0  0  0  0  0  0
    2.4952   -2.8781    1.0118 O   0  0  0  0  0  0  0  0  0  0  0  0
   -1.8466   -1.3792   -1.1882 N   0  0  0  0  0  0  0  0  0  0  0  0
   -3.0546   -1.4636   -2.0234 C   0  0  0  0  0  0  0  0  0  0  0  0
   -2.4022    1.7135    1.5441 H   0  0  0  0  0  0  0  0  0  0  0  0
   -2.1851    1.5964    3.3141 H   0  0  0  0  0  0  0  0  0  0  0  0
   -3.2985    0.4579    2.4962 H   0  0  0  0  0  0  0  0  0  0  0  0
   -3.2096   -0.4775    0.3224 H   0  0  0  0  0  0  0  0  0  0  0  0
   -2.8275   -2.9319    0.0595 H   0  0  0  0  0  0  0  0  0  0  0  0
   -0.6702   -3.2974    1.4055 H   0  0  0  0  0  0  0  0  0  0  0  0
    0.0328   -3.0772   -0.2617 H   0  0  0  0  0  0  0  0  0  0  0  0
   -0.1058    1.8333    0.9381 H   0  0  0  0  0  0  0  0  0  0  0  0
   -0.4181    0.5404   -1.8613 H   0  0  0  0  0  0  0  0  0  0  0  0
    0.1312    2.1887   -1.5118 H   0  0  0  0  0  0  0  0  0  0  0  0
   -3.9711    4.4144   -0.4971 H   0  0  0  0  0  0  0  0  0  0  0  0
   -4.3702    2.7737   -1.1275 H   0  0  0  0  0  0  0  0  0  0  0  0
    5.9403    0.4972   -0.5290 H   0  0  0  0  0  0  0  0  0  0  0  0
    4.9906    1.9746   -0.7915 H   0  0  0  0  0  0  0  0  0  0  0  0
    4.9009   -2.8865    0.5177 H   0  0  0  0  0  0  0  0  0  0  0  0
    5.5208   -1.8354   -0.7916 H   0  0  0  0  0  0  0  0  0  0  0  0
    5.7989   -1.3962    0.9484 H   0  0  0  0  0  0  0  0  0  0  0  0
   -3.1881   -0.5024   -2.5623 H   0  0  0  0  0  0  0  0  0  0  0  0
   -2.9142   -2.2636   -2.7795 H   0  0  0  0  0  0  0  0  0  0  0  0
   -3.9914   -1.6792   -1.4592 H   0  0  0  0  0  0  0  0  0  0  0  0
  1  2  1  0
  3  2  1  1
  3  4  1  0
  4  5  1  0
  5  6  1  0
  6  7  1  0
  7  8  1  0
  8  9  2  0
  9 10  1  0
 10 11  1  0
 11 12  1  0
 12 13  1  0
 13 14  1  0
 13 15  2  0
  9 16  1  0
 16 17  2  0
 16 18  1  0
 18 19  1  0
 18 20  2  0
 20 21  1  0
 20 22  1  0
 22 23  2  0
  5 24  1  0
 24 25  1  0
  7  3  1  0
 22  8  1  0
 10  3  1  0
 24  4  1  0
  1 26  1  0
  1 27  1  0
  1 28  1  0
  4 29  1  6
  5 30  1  6
  6 31  1  0
  6 32  1  0
 10 33  1  1
 11 34  1  0
 11 35  1  0
 14 36  1  0
 14 37  1  0
 19 38  1  0
 19 39  1  0
 21 40  1  0
 21 41  1  0
 21 42  1  0
 25 43  1  0
 25 44  1  0
 25 45  1  0
M  END
$$$$
