
     RDKit          3D

 43 45  0  0  0  0  0  0  0  0999 V2000
    4.9758    2.5732    1.4998 C   0  0  0  0  0  0  0  0  0  0  0  0
    3.6974    1.9489    1.0073 C   0  0  0  0  0  0  0  0  0  0  0  0
    2.4730    2.4002    1.5260 C   0  0  0  0  0  0  0  0  0  0  0  0
    1.2687    1.8500    1.0885 C   0  0  0  0  0  0  0  0  0  0  0  0
    1.2648    0.8203    0.1375 C   0  0  0  0  0  0  0  0  0  0  0  0
    0.0347    0.2501   -0.3414 N   0  0  0  0  0  0  0  0  0  0  0  0
   -1.1211    0.0244    0.4823 C   0  0  0  0  0  0  0  0  0  0  0  0
   -2.3511   -0.2838   -0.1095 C   0  0  0  0  0  0  0  0  0  0  0  0
   -3.4614   -0.5288    0.7155 C   0  0  0  0  0  0  0  0  0  0  0  0
   -3.3064   -0.4537    2.0661 N   0  0  0  0  0  0  0  0  0  0  0  0
   -2.1046   -0.1641    2.6268 C   0  0  0  0  0  0  0  0  0  0  0  0
   -1.0244    0.0652    1.8386 N   0  0  0  0  0  0  0  0  0  0  0  0
   -4.7989   -0.8489    0.1533 C   0  0  0  0  0  0  0  0  0  0  0  0
   -4.9373   -1.5110   -1.0835 C   0  0  0  0  0  0  0  0  0  0  0  0
   -6.2064   -1.8090   -1.5897 C   0  0  0  0  0  0  0  0  0  0  0  0
   -7.3495   -1.4574   -0.8693 C   0  0  0  0  0  0  0  0  0  0  0  0
   -7.2265   -0.8114    0.3622 C   0  0  0  0  0  0  0  0  0  0  0  0
   -5.9604   -0.5115    0.8742 C   0  0  0  0  0  0  0  0  0  0  0  0
    2.4814    0.3774   -0.3973 C   0  0  0  0  0  0  0  0  0  0  0  0
    3.7066    0.9255    0.0281 C   0  0  0  0  0  0  0  0  0  0  0  0
    4.9529    0.4320   -0.5032 N   0  0  0  0  0  0  0  0  0  0  0  0
    5.1156   -0.2830   -2.0768 S   0  0  0  0  0  6  0  0  0  0  0  0
    4.8858   -2.0446   -1.9720 C   0  0  0  0  0  0  0  0  0  0  0  0
    4.1125    0.3149   -3.0233 O   0  0  0  0  0  0  0  0  0  0  0  0
    6.4954    0.0005   -2.5997 O   0  0  0  0  0  0  0  0  0  0  0  0
    5.5532    1.8289    2.0872 H   0  0  0  0  0  0  0  0  0  0  0  0
    5.5847    2.9208    0.6386 H   0  0  0  0  0  0  0  0  0  0  0  0
    4.7794    3.4516    2.1508 H   0  0  0  0  0  0  0  0  0  0  0  0
    2.4467    3.1908    2.2659 H   0  0  0  0  0  0  0  0  0  0  0  0
    0.3405    2.2458    1.4791 H   0  0  0  0  0  0  0  0  0  0  0  0
    0.0093   -0.0965   -1.3277 H   0  0  0  0  0  0  0  0  0  0  0  0
   -2.4364   -0.3011   -1.1881 H   0  0  0  0  0  0  0  0  0  0  0  0
   -2.0076   -0.1183    3.7027 H   0  0  0  0  0  0  0  0  0  0  0  0
   -4.0705   -1.8222   -1.6509 H   0  0  0  0  0  0  0  0  0  0  0  0
   -6.3030   -2.3195   -2.5392 H   0  0  0  0  0  0  0  0  0  0  0  0
   -8.3305   -1.6899   -1.2632 H   0  0  0  0  0  0  0  0  0  0  0  0
   -8.1132   -0.5418    0.9213 H   0  0  0  0  0  0  0  0  0  0  0  0
   -5.8905   -0.0044    1.8285 H   0  0  0  0  0  0  0  0  0  0  0  0
    2.4619   -0.4189   -1.1267 H   0  0  0  0  0  0  0  0  0  0  0  0
    5.8381    0.5683    0.0318 H   0  0  0  0  0  0  0  0  0  0  0  0
    5.6432   -2.4749   -1.2848 H   0  0  0  0  0  0  0  0  0  0  0  0
    3.8722   -2.2749   -1.5870 H   0  0  0  0  0  0  0  0  0  0  0  0
    5.0060   -2.4946   -2.9790 H   0  0  0  0  0  0  0  0  0  0  0  0
  1  2  1  0
  2  3  2  0
  3  4  1  0
  4  5  2  0
  5  6  1  0
  6  7  1  0
  7  8  2  0
  8  9  1  0
  9 10  2  0
 10 11  1  0
 11 12  2  0
  9 13  1  0
 13 14  2  0
 14 15  1  0
 15 16  2  0
 16 17  1  0
 17 18  2  0
  5 19  1  0
 19 20  2  0
 20 21  1  0
 21 22  1  0
 22 23  1  0
 22 24  2  0
 22 25  2  0
 20  2  1  0
 12  7  1  0
 18 13  1  0
  1 26  1  0
  1 27  1  0
  1 28  1  0
  3 29  1  0
  4 30  1  0
  6 31  1  0
  8 32  1  0
 11 33  1  0
 14 34  1  0
 15 35  1  0
 16 36  1  0
 17 37  1  0
 18 38  1  0
 19 39  1  0
 21 40  1  0
 23 41  1  0
 23 42  1  0
 23 43  1  0
M  END
$$$$
