
     RDKit          3D

 34 34  0  0  0  0  0  0  0  0999 V2000
   -3.5699    1.0191    0.6930 C   0  0  0  0  0  0  0  0  0  0  0  0
   -3.7053   -0.3334   -0.0382 C   0  0  0  0  0  0  0  0  0  0  0  0
   -3.6571   -1.4822    0.9913 C   0  0  0  0  0  0  0  0  0  0  0  0
   -5.0705   -0.3714   -0.7552 C   0  0  0  0  0  0  0  0  0  0  0  0
   -2.5853   -0.5000   -1.1042 C   0  0  0  0  0  0  0  0  0  0  0  0
   -1.1958   -0.4703   -0.5355 C   0  0  0  0  0  0  0  0  0  0  0  0
   -0.6580   -1.5420   -0.1454 O   0  0  0  0  0  0  0  0  0  0  0  0
   -0.5421    0.7602   -0.3817 O   0  0  0  0  0  0  0  0  0  0  0  0
    0.8080    0.8916   -0.0998 N   0  0  0  0  0  0  0  0  0  0  0  0
    1.7259    0.0768   -0.5261 C   0  0  0  0  0  0  0  0  0  0  0  0
    3.1443    0.2731   -0.1651 C   0  0  0  0  0  0  0  0  0  0  0  0
    3.5494    1.3262    0.6762 C   0  0  0  0  0  0  0  0  0  0  0  0
    4.8993    1.4886    1.0036 C   0  0  0  0  0  0  0  0  0  0  0  0
    5.8580    0.6055    0.4980 C   0  0  0  0  0  0  0  0  0  0  0  0
    7.1989    0.7800    0.8329 O   0  0  0  0  0  0  0  0  0  0  0  0
    5.4614   -0.4453   -0.3394 C   0  0  0  0  0  0  0  0  0  0  0  0
    4.1125   -0.6106   -0.6688 C   0  0  0  0  0  0  0  0  0  0  0  0
   -4.4213    1.1737    1.3907 H   0  0  0  0  0  0  0  0  0  0  0  0
   -2.6341    1.0582    1.2899 H   0  0  0  0  0  0  0  0  0  0  0  0
   -3.5585    1.8583   -0.0356 H   0  0  0  0  0  0  0  0  0  0  0  0
   -2.7200   -1.4461    1.5863 H   0  0  0  0  0  0  0  0  0  0  0  0
   -4.5098   -1.4081    1.7005 H   0  0  0  0  0  0  0  0  0  0  0  0
   -3.7124   -2.4677    0.4806 H   0  0  0  0  0  0  0  0  0  0  0  0
   -5.1456    0.4504   -1.5000 H   0  0  0  0  0  0  0  0  0  0  0  0
   -5.2075   -1.3376   -1.2874 H   0  0  0  0  0  0  0  0  0  0  0  0
   -5.9029   -0.2560   -0.0275 H   0  0  0  0  0  0  0  0  0  0  0  0
   -2.6666    0.3106   -1.8613 H   0  0  0  0  0  0  0  0  0  0  0  0
   -2.7250   -1.4602   -1.6487 H   0  0  0  0  0  0  0  0  0  0  0  0
    1.4640   -0.7406   -1.1861 H   0  0  0  0  0  0  0  0  0  0  0  0
    2.8263    2.0229    1.0812 H   0  0  0  0  0  0  0  0  0  0  0  0
    5.2006    2.3021    1.6515 H   0  0  0  0  0  0  0  0  0  0  0  0
    7.9174    0.1570    0.4828 H   0  0  0  0  0  0  0  0  0  0  0  0
    6.1968   -1.1341   -0.7352 H   0  0  0  0  0  0  0  0  0  0  0  0
    3.8249   -1.4293   -1.3173 H   0  0  0  0  0  0  0  0  0  0  0  0
  1  2  1  0
  2  3  1  0
  2  4  1  0
  2  5  1  0
  5  6  1  0
  6  7  2  0
  6  8  1  0
  8  9  1  0
  9 10  2  0
 10 11  1  0
 11 12  2  0
 12 13  1  0
 13 14  2  0
 14 15  1  0
 14 16  1  0
 16 17  2  0
 17 11  1  0
  1 18  1  0
  1 19  1  0
  1 20  1  0
  3 21  1  0
  3 22  1  0
  3 23  1  0
  4 24  1  0
  4 25  1  0
  4 26  1  0
  5 27  1  0
  5 28  1  0
 10 29  1  0
 12 30  1  0
 13 31  1  0
 15 32  1  0
 16 33  1  0
 17 34  1  0
M  END
$$$$
