
     RDKit          3D

 50 50  0  0  0  0  0  0  0  0999 V2000
   -5.2396    1.9185   -0.6734 C   0  0  0  0  0  0  0  0  0  0  0  0
   -4.2076    1.0763    0.0814 C   0  0  0  0  0  0  0  0  0  0  0  0
   -2.7648    1.5988    0.1269 C   0  0  0  0  0  0  0  0  0  0  0  0
   -4.7049    0.4204    1.3664 C   0  0  0  0  0  0  0  0  0  0  0  0
   -4.4719   -0.4327    0.1149 C   0  0  2  0  0  0  0  0  0  0  0  0
   -3.2736   -1.3394    0.1594 C   0  0  0  0  0  0  0  0  0  0  0  0
   -2.9710   -1.9317    1.2311 O   0  0  0  0  0  0  0  0  0  0  0  0
   -2.5111   -1.5643   -1.0345 N   0  0  0  0  0  0  0  0  0  0  0  0
   -1.5682   -2.6436   -1.1703 C   0  0  0  0  0  0  0  0  0  0  0  0
   -0.3721   -2.4412   -1.7570 C   0  0  0  0  0  0  0  0  0  0  0  0
    0.1245   -1.0952   -2.2179 C   0  0  0  0  0  0  0  0  0  0  0  0
    0.4908   -0.1783   -1.0421 C   0  0  0  0  0  0  0  0  0  0  0  0
    1.7152   -0.6879   -0.2692 C   0  0  0  0  0  0  0  0  0  0  0  0
    2.0634    0.2541    0.8849 C   0  0  0  0  0  0  0  0  0  0  0  0
    3.5031   -0.3835    1.8154 S   0  0  0  0  0  0  0  0  0  0  0  0
    4.7987    0.4498    0.8211 C   0  0  0  0  0  0  0  0  0  0  0  0
    5.0918    1.8655    1.3462 C   0  0  2  0  0  0  0  0  0  0  0  0
    6.0410    2.5380    0.4587 N   0  0  0  0  0  0  0  0  0  0  0  0
    5.6640    1.8031    2.7355 C   0  0  0  0  0  0  0  0  0  0  0  0
    6.9361    1.2771    2.9427 O   0  0  0  0  0  0  0  0  0  0  0  0
    4.9866    2.2124    3.7162 O   0  0  0  0  0  0  0  0  0  0  0  0
   -1.9540   -4.0062   -0.7320 C   0  0  0  0  0  0  0  0  0  0  0  0
   -3.2841   -4.2889   -0.4347 O   0  0  0  0  0  0  0  0  0  0  0  0
   -1.0917   -4.9217   -0.6357 O   0  0  0  0  0  0  0  0  0  0  0  0
   -6.2529    1.4630   -0.6433 H   0  0  0  0  0  0  0  0  0  0  0  0
   -5.2951    2.9309   -0.2214 H   0  0  0  0  0  0  0  0  0  0  0  0
   -4.9291    2.0159   -1.7346 H   0  0  0  0  0  0  0  0  0  0  0  0
   -2.1318    1.0304    0.8403 H   0  0  0  0  0  0  0  0  0  0  0  0
   -2.3165    1.5333   -0.8863 H   0  0  0  0  0  0  0  0  0  0  0  0
   -2.7662    2.6620    0.4458 H   0  0  0  0  0  0  0  0  0  0  0  0
   -5.7784    0.5817    1.6026 H   0  0  0  0  0  0  0  0  0  0  0  0
   -3.9498    0.3090    2.1743 H   0  0  0  0  0  0  0  0  0  0  0  0
   -5.3992   -0.7981   -0.3759 H   0  0  0  0  0  0  0  0  0  0  0  0
   -2.6584   -0.9136   -1.8380 H   0  0  0  0  0  0  0  0  0  0  0  0
    0.2972   -3.2794   -1.9127 H   0  0  0  0  0  0  0  0  0  0  0  0
    1.0232   -1.2420   -2.8556 H   0  0  0  0  0  0  0  0  0  0  0  0
   -0.6382   -0.6041   -2.8578 H   0  0  0  0  0  0  0  0  0  0  0  0
   -0.3715   -0.0885   -0.3508 H   0  0  0  0  0  0  0  0  0  0  0  0
    0.7105    0.8349   -1.4440 H   0  0  0  0  0  0  0  0  0  0  0  0
    2.5809   -0.7658   -0.9612 H   0  0  0  0  0  0  0  0  0  0  0  0
    1.5031   -1.6982    0.1436 H   0  0  0  0  0  0  0  0  0  0  0  0
    1.2032    0.3074    1.5858 H   0  0  0  0  0  0  0  0  0  0  0  0
    2.2568    1.2792    0.5044 H   0  0  0  0  0  0  0  0  0  0  0  0
    4.4915    0.4944   -0.2451 H   0  0  0  0  0  0  0  0  0  0  0  0
    5.7230   -0.1652    0.8677 H   0  0  0  0  0  0  0  0  0  0  0  0
    4.1444    2.4503    1.3667 H   0  0  0  0  0  0  0  0  0  0  0  0
    6.1933    3.5101    0.8152 H   0  0  0  0  0  0  0  0  0  0  0  0
    5.5943    2.6459   -0.4813 H   0  0  0  0  0  0  0  0  0  0  0  0
    7.3303    1.2226    3.8742 H   0  0  0  0  0  0  0  0  0  0  0  0
   -3.5651   -5.2153   -0.1363 H   0  0  0  0  0  0  0  0  0  0  0  0
  1  2  1  0
  2  3  1  0
  2  4  1  0
  4  5  1  0
  5  6  1  0
  6  7  2  0
  6  8  1  0
  8  9  1  0
  9 10  2  0
 10 11  1  0
 11 12  1  0
 12 13  1  0
 13 14  1  0
 14 15  1  0
 15 16  1  0
 16 17  1  0
 17 18  1  0
 17 19  1  0
 19 20  1  0
 19 21  2  0
  9 22  1  0
 22 23  1  0
 22 24  2  0
  5  2  1  0
  1 25  1  0
  1 26  1  0
  1 27  1  0
  3 28  1  0
  3 29  1  0
  3 30  1  0
  4 31  1  0
  4 32  1  0
  5 33  1  6
  8 34  1  0
 10 35  1  0
 11 36  1  0
 11 37  1  0
 12 38  1  0
 12 39  1  0
 13 40  1  0
 13 41  1  0
 14 42  1  0
 14 43  1  0
 16 44  1  0
 16 45  1  0
 17 46  1  1
 18 47  1  0
 18 48  1  0
 20 49  1  0
 23 50  1  0
M  END
$$$$
