
     RDKit          3D

 47 49  0  0  0  0  0  0  0  0999 V2000
    0.7248    0.4219    1.5272 C   0  0  1  0  0  0  0  0  0  0  0  0
    2.0562    0.6064    0.7908 C   0  0  0  0  0  0  0  0  0  0  0  0
    1.8393    0.5985   -0.6015 O   0  0  0  0  0  0  0  0  0  0  0  0
    3.3463    0.5029   -1.3945 P   0  0  0  0  0  5  0  0  0  0  0  0
    3.7804   -1.1286   -1.5429 O   0  0  0  0  0  0  0  0  0  0  0  0
    3.1858    1.0951   -2.7764 O   0  0  0  0  0  0  0  0  0  0  0  0
    4.5233    1.3844   -0.5309 O   0  0  0  0  0  0  0  0  0  0  0  0
    6.0441    1.0212   -1.2039 P   0  0  0  0  0  5  0  0  0  0  0  0
    6.0362    1.2440   -2.8829 O   0  0  0  0  0  0  0  0  0  0  0  0
    6.4739   -0.5772   -0.8500 O   0  0  0  0  0  0  0  0  0  0  0  0
    7.0744    1.9453   -0.5955 O   0  0  0  0  0  0  0  0  0  0  0  0
   -0.2044    1.3965    1.1133 O   0  0  0  0  0  0  0  0  0  0  0  0
   -1.4916    0.8205    1.2096 C   0  0  1  0  0  0  0  0  0  0  0  0
   -2.2180    1.0331   -0.0442 N   0  0  0  0  0  0  0  0  0  0  0  0
   -1.7433    0.9337   -1.3140 C   0  0  0  0  0  0  0  0  0  0  0  0
   -2.7069    1.0839   -2.2645 N   0  0  0  0  0  0  0  0  0  0  0  0
   -3.8202    1.2719   -1.5309 C   0  0  0  0  0  0  0  0  0  0  0  0
   -5.1337    1.4548   -1.9480 C   0  0  0  0  0  0  0  0  0  0  0  0
   -5.4852    1.4975   -3.3310 N   0  0  0  0  0  0  0  0  0  0  0  0
   -6.0917    1.5879   -0.9821 N   0  0  0  0  0  0  0  0  0  0  0  0
   -5.7737    1.5397    0.3519 C   0  0  0  0  0  0  0  0  0  0  0  0
   -4.4786    1.3562    0.7503 N   0  0  0  0  0  0  0  0  0  0  0  0
   -3.5310    1.2324   -0.2104 C   0  0  0  0  0  0  0  0  0  0  0  0
   -1.3598   -0.6816    1.5037 C   0  0  2  0  0  0  0  0  0  0  0  0
   -1.7749   -0.9870    2.8157 O   0  0  0  0  0  0  0  0  0  0  0  0
    0.1148   -0.9537    1.2876 C   0  0  2  0  0  0  0  0  0  0  0  0
    0.6350   -1.8848    2.2181 O   0  0  0  0  0  0  0  0  0  0  0  0
    0.6284   -3.4474    1.5304 P   0  0  0  0  0  5  0  0  0  0  0  0
    1.0501   -4.5745    2.7193 O   0  0  0  0  0  0  0  0  0  0  0  0
   -0.9071   -3.8250    0.9255 O   0  0  0  0  0  0  0  0  0  0  0  0
    1.6406   -3.5150    0.4090 O   0  0  0  0  0  0  0  0  0  0  0  0
    0.9125    0.5620    2.6168 H   0  0  0  0  0  0  0  0  0  0  0  0
    2.4880    1.5850    1.0978 H   0  0  0  0  0  0  0  0  0  0  0  0
    2.7430   -0.2105    1.1122 H   0  0  0  0  0  0  0  0  0  0  0  0
    3.7905   -1.4787   -0.6171 H   0  0  0  0  0  0  0  0  0  0  0  0
    5.8304    2.2046   -3.0099 H   0  0  0  0  0  0  0  0  0  0  0  0
    6.3624   -0.6572    0.1310 H   0  0  0  0  0  0  0  0  0  0  0  0
   -2.0388    1.3311    2.0334 H   0  0  0  0  0  0  0  0  0  0  0  0
   -0.7070    0.7358   -1.5525 H   0  0  0  0  0  0  0  0  0  0  0  0
   -4.7587    1.3949   -4.0740 H   0  0  0  0  0  0  0  0  0  0  0  0
   -6.4807    1.6334   -3.6151 H   0  0  0  0  0  0  0  0  0  0  0  0
   -6.5533    1.6452    1.0936 H   0  0  0  0  0  0  0  0  0  0  0  0
   -1.9662   -1.2901    0.7969 H   0  0  0  0  0  0  0  0  0  0  0  0
   -1.2387   -0.4383    3.4467 H   0  0  0  0  0  0  0  0  0  0  0  0
    0.2798   -1.2391    0.2197 H   0  0  0  0  0  0  0  0  0  0  0  0
    0.4040   -4.4192    3.4537 H   0  0  0  0  0  0  0  0  0  0  0  0
   -1.5006   -3.8120    1.7182 H   0  0  0  0  0  0  0  0  0  0  0  0
  1  2  1  0
  2  3  1  0
  3  4  1  0
  4  5  1  0
  4  6  2  0
  4  7  1  0
  7  8  1  0
  8  9  1  0
  8 10  1  0
  8 11  2  0
  1 12  1  0
 12 13  1  0
 13 14  1  0
 14 15  1  0
 15 16  2  0
 16 17  1  0
 17 18  2  0
 18 19  1  0
 18 20  1  0
 20 21  2  0
 21 22  1  0
 22 23  2  0
 13 24  1  0
 24 25  1  0
 24 26  1  0
 26 27  1  0
 27 28  1  0
 28 29  1  0
 28 30  1  0
 28 31  2  0
 26  1  1  0
 23 14  1  0
 23 17  1  0
  1 32  1  1
  2 33  1  0
  2 34  1  0
  5 35  1  0
  9 36  1  0
 10 37  1  0
 13 38  1  1
 15 39  1  0
 19 40  1  0
 19 41  1  0
 21 42  1  0
 24 43  1  6
 25 44  1  0
 26 45  1  6
 29 46  1  0
 30 47  1  0
M  END
$$$$
