
     RDKit          3D

 48 49  0  0  0  0  0  0  0  0999 V2000
   -3.3393   -0.3158    0.4290 C   0  0  1  0  0  0  0  0  0  0  0  0
   -4.5213    0.6544    0.5582 C   0  0  0  0  0  0  0  0  0  0  0  0
   -5.4338    0.2026    1.5235 O   0  0  0  0  0  0  0  0  0  0  0  0
   -2.5298    0.1036   -0.6581 O   0  0  0  0  0  0  0  0  0  0  0  0
   -1.6016   -0.9075   -1.0480 C   0  0  2  0  0  0  0  0  0  0  0  0
   -2.2471   -1.8887   -1.8430 O   0  0  0  0  0  0  0  0  0  0  0  0
   -2.5501   -1.3644   -3.1176 C   0  0  0  0  0  0  0  0  0  0  0  0
   -0.9319   -1.5960    0.1726 C   0  0  1  0  0  0  0  0  0  0  0  0
    0.6935   -2.3979   -0.1918 S   0  0  0  0  0  0  0  0  0  0  0  0
    1.9340   -1.0411   -0.3183 C   0  0  1  0  0  0  0  0  0  0  0  0
    1.3459    0.1611   -0.7876 O   0  0  0  0  0  0  0  0  0  0  0  0
    2.1276    1.3399   -0.5904 C   0  0  2  0  0  0  0  0  0  0  0  0
    1.8699    2.2703   -1.7883 C   0  0  0  0  0  0  0  0  0  0  0  0
    2.3542    3.5642   -1.5469 O   0  0  0  0  0  0  0  0  0  0  0  0
    3.6485    1.0733   -0.3916 C   0  0  1  0  0  0  0  0  0  0  0  0
    4.3728    2.2666   -0.2179 O   0  0  0  0  0  0  0  0  0  0  0  0
    3.8837    0.1251    0.8114 C   0  0  2  0  0  0  0  0  0  0  0  0
    5.1177   -0.5370    0.6702 O   0  0  0  0  0  0  0  0  0  0  0  0
    2.7096   -0.8726    1.0046 C   0  0  2  0  0  0  0  0  0  0  0  0
    3.1818   -2.1201    1.4484 O   0  0  0  0  0  0  0  0  0  0  0  0
   -1.0161   -0.7332    1.4497 C   0  0  1  0  0  0  0  0  0  0  0  0
   -0.2457    0.4378    1.3552 O   0  0  0  0  0  0  0  0  0  0  0  0
   -2.5029   -0.3796    1.7424 C   0  0  2  0  0  0  0  0  0  0  0  0
   -3.0656   -1.3477    2.5918 O   0  0  0  0  0  0  0  0  0  0  0  0
   -3.7726   -1.3213    0.2101 H   0  0  0  0  0  0  0  0  0  0  0  0
   -5.0486    0.7070   -0.4182 H   0  0  0  0  0  0  0  0  0  0  0  0
   -4.1617    1.6828    0.7950 H   0  0  0  0  0  0  0  0  0  0  0  0
   -5.1411    0.5778    2.3946 H   0  0  0  0  0  0  0  0  0  0  0  0
   -0.8019   -0.4097   -1.6336 H   0  0  0  0  0  0  0  0  0  0  0  0
   -1.6221   -1.1184   -3.6795 H   0  0  0  0  0  0  0  0  0  0  0  0
   -3.0958   -2.1375   -3.6962 H   0  0  0  0  0  0  0  0  0  0  0  0
   -3.2103   -0.4720   -3.0459 H   0  0  0  0  0  0  0  0  0  0  0  0
   -1.5676   -2.4805    0.4054 H   0  0  0  0  0  0  0  0  0  0  0  0
    2.6505   -1.3947   -1.0921 H   0  0  0  0  0  0  0  0  0  0  0  0
    1.7437    1.8498    0.3205 H   0  0  0  0  0  0  0  0  0  0  0  0
    0.7770    2.3137   -2.0021 H   0  0  0  0  0  0  0  0  0  0  0  0
    2.3665    1.8621   -2.6943 H   0  0  0  0  0  0  0  0  0  0  0  0
    1.7213    3.9910   -0.9121 H   0  0  0  0  0  0  0  0  0  0  0  0
    4.0264    0.5869   -1.3181 H   0  0  0  0  0  0  0  0  0  0  0  0
    3.9851    2.7438    0.5619 H   0  0  0  0  0  0  0  0  0  0  0  0
    3.9438    0.7331    1.7411 H   0  0  0  0  0  0  0  0  0  0  0  0
    5.0511   -1.1311   -0.1228 H   0  0  0  0  0  0  0  0  0  0  0  0
    2.0110   -0.4611    1.7656 H   0  0  0  0  0  0  0  0  0  0  0  0
    3.4475   -2.0028    2.3980 H   0  0  0  0  0  0  0  0  0  0  0  0
   -0.6071   -1.3262    2.2969 H   0  0  0  0  0  0  0  0  0  0  0  0
   -0.6808    1.0527    0.7101 H   0  0  0  0  0  0  0  0  0  0  0  0
   -2.5348    0.6144    2.2504 H   0  0  0  0  0  0  0  0  0  0  0  0
   -2.7331   -1.1567    3.5077 H   0  0  0  0  0  0  0  0  0  0  0  0
  1  2  1  0
  2  3  1  0
  1  4  1  0
  4  5  1  0
  5  6  1  0
  6  7  1  0
  5  8  1  0
  8  9  1  0
  9 10  1  0
 10 11  1  0
 11 12  1  0
 12 13  1  0
 13 14  1  0
 12 15  1  0
 15 16  1  0
 15 17  1  0
 17 18  1  0
 17 19  1  0
 19 20  1  0
  8 21  1  0
 21 22  1  0
 21 23  1  0
 23 24  1  0
 23  1  1  0
 19 10  1  0
  1 25  1  6
  2 26  1  0
  2 27  1  0
  3 28  1  0
  5 29  1  6
  7 30  1  0
  7 31  1  0
  7 32  1  0
  8 33  1  1
 10 34  1  6
 12 35  1  1
 13 36  1  0
 13 37  1  0
 14 38  1  0
 15 39  1  6
 16 40  1  0
 17 41  1  1
 18 42  1  0
 19 43  1  1
 20 44  1  0
 21 45  1  1
 22 46  1  0
 23 47  1  1
 24 48  1  0
M  END
$$$$
