
     RDKit          3D

 52 53  0  0  0  0  0  0  0  0999 V2000
   -9.0663   -1.4629    3.0237 O   0  0  0  0  0  0  0  0  0  0  0  0
   -8.7514   -0.3160    2.3017 C   0  0  0  0  0  0  0  0  0  0  0  0
   -9.3595    0.7627    2.5354 O   0  0  0  0  0  0  0  0  0  0  0  0
   -7.6576   -0.3546    1.2819 C   0  0  0  0  0  0  0  0  0  0  0  0
   -6.3098   -0.0133    1.9302 C   0  0  0  0  0  0  0  0  0  0  0  0
   -5.1307   -0.1678    0.9569 C   0  0  0  0  0  0  0  0  0  0  0  0
   -5.1331    0.9026   -0.1489 C   0  0  0  0  0  0  0  0  0  0  0  0
   -3.8256    0.9182   -0.9557 C   0  0  0  0  0  0  0  0  0  0  0  0
   -3.6670   -0.3176   -1.8494 C   0  0  0  0  0  0  0  0  0  0  0  0
   -2.5044   -0.1936   -2.6686 O   0  0  0  0  0  0  0  0  0  0  0  0
   -1.2053   -0.3108   -2.1607 C   0  0  0  0  0  0  0  0  0  0  0  0
   -0.3858    0.8267   -2.0961 C   0  0  0  0  0  0  0  0  0  0  0  0
   -0.9776    2.3874   -2.6452 Cl  0  0  0  0  0  0  0  0  0  0  0  0
    0.9093    0.7331   -1.5762 C   0  0  0  0  0  0  0  0  0  0  0  0
    1.4144   -0.5039   -1.1419 C   0  0  0  0  0  0  0  0  0  0  0  0
    2.7339   -0.6214   -0.5823 N   0  0  0  0  0  0  0  0  0  0  0  0
    3.8661    0.1473   -1.0176 C   0  0  0  0  0  0  0  0  0  0  0  0
    3.8091    0.8101   -2.0891 O   0  0  0  0  0  0  0  0  0  0  0  0
    5.0806    0.1094   -0.2528 N   0  0  0  0  0  0  0  0  0  0  0  0
    6.2489    0.8853   -0.5670 C   0  0  0  0  0  0  0  0  0  0  0  0
    6.1771    1.8374   -1.3911 O   0  0  0  0  0  0  0  0  0  0  0  0
    7.5318    0.6242    0.1209 C   0  0  0  0  0  0  0  0  0  0  0  0
    8.2784    1.7145    0.6018 C   0  0  0  0  0  0  0  0  0  0  0  0
    9.4867    1.5074    1.2717 C   0  0  0  0  0  0  0  0  0  0  0  0
    9.9688    0.2118    1.4602 C   0  0  0  0  0  0  0  0  0  0  0  0
    9.2492   -0.8798    0.9701 C   0  0  0  0  0  0  0  0  0  0  0  0
    8.0363   -0.6855    0.2968 C   0  0  0  0  0  0  0  0  0  0  0  0
    7.2345   -2.0996   -0.3818 Cl  0  0  0  0  0  0  0  0  0  0  0  0
    0.5956   -1.6391   -1.2135 C   0  0  0  0  0  0  0  0  0  0  0  0
   -0.7010   -1.5531   -1.7323 C   0  0  0  0  0  0  0  0  0  0  0  0
   -1.6391   -3.0301   -1.9035 Cl  0  0  0  0  0  0  0  0  0  0  0  0
   -9.7931   -1.4492    3.7292 H   0  0  0  0  0  0  0  0  0  0  0  0
   -7.8918    0.3716    0.4748 H   0  0  0  0  0  0  0  0  0  0  0  0
   -7.6165   -1.3715    0.8350 H   0  0  0  0  0  0  0  0  0  0  0  0
   -6.1392   -0.7015    2.7876 H   0  0  0  0  0  0  0  0  0  0  0  0
   -6.3342    1.0239    2.3315 H   0  0  0  0  0  0  0  0  0  0  0  0
   -4.1900   -0.0809    1.5435 H   0  0  0  0  0  0  0  0  0  0  0  0
   -5.1571   -1.1839    0.5084 H   0  0  0  0  0  0  0  0  0  0  0  0
   -5.2585    1.9045    0.3168 H   0  0  0  0  0  0  0  0  0  0  0  0
   -5.9883    0.7403   -0.8393 H   0  0  0  0  0  0  0  0  0  0  0  0
   -3.8278    1.8216   -1.6034 H   0  0  0  0  0  0  0  0  0  0  0  0
   -2.9572    1.0002   -0.2664 H   0  0  0  0  0  0  0  0  0  0  0  0
   -4.5526   -0.4082   -2.5133 H   0  0  0  0  0  0  0  0  0  0  0  0
   -3.6045   -1.2343   -1.2299 H   0  0  0  0  0  0  0  0  0  0  0  0
    1.5070    1.6309   -1.4910 H   0  0  0  0  0  0  0  0  0  0  0  0
    2.9014   -1.3715    0.1259 H   0  0  0  0  0  0  0  0  0  0  0  0
    5.1035   -0.4964    0.5981 H   0  0  0  0  0  0  0  0  0  0  0  0
    7.9167    2.7274    0.4727 H   0  0  0  0  0  0  0  0  0  0  0  0
   10.0491    2.3529    1.6463 H   0  0  0  0  0  0  0  0  0  0  0  0
   10.9062    0.0535    1.9778 H   0  0  0  0  0  0  0  0  0  0  0  0
    9.6432   -1.8795    1.1031 H   0  0  0  0  0  0  0  0  0  0  0  0
    0.9772   -2.5981   -0.8851 H   0  0  0  0  0  0  0  0  0  0  0  0
  1  2  1  0
  2  3  2  0
  2  4  1  0
  4  5  1  0
  5  6  1  0
  6  7  1  0
  7  8  1  0
  8  9  1  0
  9 10  1  0
 10 11  1  0
 11 12  2  0
 12 13  1  0
 12 14  1  0
 14 15  2  0
 15 16  1  0
 16 17  1  0
 17 18  2  0
 17 19  1  0
 19 20  1  0
 20 21  2  0
 20 22  1  0
 22 23  2  0
 23 24  1  0
 24 25  2  0
 25 26  1  0
 26 27  2  0
 27 28  1  0
 15 29  1  0
 29 30  2  0
 30 31  1  0
 30 11  1  0
 27 22  1  0
  1 32  1  0
  4 33  1  0
  4 34  1  0
  5 35  1  0
  5 36  1  0
  6 37  1  0
  6 38  1  0
  7 39  1  0
  7 40  1  0
  8 41  1  0
  8 42  1  0
  9 43  1  0
  9 44  1  0
 14 45  1  0
 16 46  1  0
 19 47  1  0
 23 48  1  0
 24 49  1  0
 25 50  1  0
 26 51  1  0
 29 52  1  0
M  END
$$$$
