
     RDKit          3D

 64 67  0  0  0  0  0  0  0  0999 V2000
   -5.7863   -2.2682   -1.6411 C   0  0  1  0  0  0  0  0  0  0  0  0
   -7.1355   -2.6549   -1.7059 O   0  0  0  0  0  0  0  0  0  0  0  0
   -5.3890   -1.6938   -2.8719 O   0  0  0  0  0  0  0  0  0  0  0  0
   -4.7668   -0.4567   -2.5999 C   0  0  2  0  0  0  0  0  0  0  0  0
   -3.2437   -0.6194   -2.7050 C   0  0  0  0  0  0  0  0  0  0  0  0
   -2.6290    0.6424   -2.5810 O   0  0  0  0  0  0  0  0  0  0  0  0
   -0.9391    0.4173   -2.4982 P   0  0  0  0  0  5  0  0  0  0  0  0
   -0.1764    1.9266   -2.4161 O   0  0  0  0  0  0  0  0  0  0  0  0
   -0.4578   -0.2968   -3.7418 O   0  0  0  0  0  0  0  0  0  0  0  0
   -0.5182   -0.5081   -1.1342 O   0  0  0  0  0  0  0  0  0  0  0  0
   -1.1146    0.2767    0.2609 P   0  0  0  0  0  5  0  0  0  0  0  0
   -1.8393    1.7786   -0.0567 O   0  0  0  0  0  0  0  0  0  0  0  0
   -2.1428   -0.6232    0.9068 O   0  0  0  0  0  0  0  0  0  0  0  0
    0.1689    0.4971    1.3603 O   0  0  0  0  0  0  0  0  0  0  0  0
    1.1182    1.3472    0.7616 C   0  0  0  0  0  0  0  0  0  0  0  0
    2.3070    1.5192    1.7109 C   0  0  1  0  0  0  0  0  0  0  0  0
    2.9074    0.2663    1.9579 O   0  0  0  0  0  0  0  0  0  0  0  0
    4.3079    0.4527    2.0061 C   0  0  1  0  0  0  0  0  0  0  0  0
    4.9512   -0.4014    1.0046 N   0  0  0  0  0  0  0  0  0  0  0  0
    4.5248   -0.6859   -0.2545 C   0  0  0  0  0  0  0  0  0  0  0  0
    5.4117   -1.4320   -0.9698 N   0  0  0  0  0  0  0  0  0  0  0  0
    6.4284   -1.5961   -0.1026 C   0  0  0  0  0  0  0  0  0  0  0  0
    7.6406   -2.2544   -0.2753 C   0  0  0  0  0  0  0  0  0  0  0  0
    7.9695   -2.9180   -1.4958 N   0  0  0  0  0  0  0  0  0  0  0  0
    8.5219   -2.2422    0.7694 N   0  0  0  0  0  0  0  0  0  0  0  0
    8.2266   -1.6018    1.9465 C   0  0  0  0  0  0  0  0  0  0  0  0
    7.0322   -0.9552    2.1040 N   0  0  0  0  0  0  0  0  0  0  0  0
    6.1584   -0.9759    1.0684 C   0  0  0  0  0  0  0  0  0  0  0  0
    4.6384    1.9267    1.7442 C   0  0  2  0  0  0  0  0  0  0  0  0
    4.9824    2.5940    2.9377 O   0  0  0  0  0  0  0  0  0  0  0  0
    3.3629    2.4600    1.1378 C   0  0  2  0  0  0  0  0  0  0  0  0
    3.1298    3.7945    1.5088 O   0  0  0  0  0  0  0  0  0  0  0  0
   -5.2051    0.0135   -1.2099 C   0  0  1  0  0  0  0  0  0  0  0  0
   -6.3221    0.8693   -1.2894 O   0  0  0  0  0  0  0  0  0  0  0  0
   -5.5271   -1.2825   -0.4973 C   0  0  1  0  0  0  0  0  0  0  0  0
   -6.6503   -1.1645    0.3801 O   0  0  0  0  0  0  0  0  0  0  0  0
   -6.6000   -0.4738    1.5955 C   0  0  0  0  0  0  0  0  0  0  0  0
   -7.8322   -0.3597    2.4263 C   0  0  0  0  0  0  0  0  0  0  0  0
   -5.5364    0.0874    1.9756 O   0  0  0  0  0  0  0  0  0  0  0  0
   -5.1795   -3.1842   -1.4724 H   0  0  0  0  0  0  0  0  0  0  0  0
   -7.6479   -1.8813   -2.0577 H   0  0  0  0  0  0  0  0  0  0  0  0
   -5.0886    0.2796   -3.3695 H   0  0  0  0  0  0  0  0  0  0  0  0
   -3.0086   -1.0579   -3.7008 H   0  0  0  0  0  0  0  0  0  0  0  0
   -2.9066   -1.3231   -1.9093 H   0  0  0  0  0  0  0  0  0  0  0  0
   -0.5617    2.4453   -3.1665 H   0  0  0  0  0  0  0  0  0  0  0  0
   -2.1159    2.1191    0.8312 H   0  0  0  0  0  0  0  0  0  0  0  0
    0.6733    2.3496    0.5684 H   0  0  0  0  0  0  0  0  0  0  0  0
    1.4896    0.9140   -0.1950 H   0  0  0  0  0  0  0  0  0  0  0  0
    1.9327    1.9236    2.6790 H   0  0  0  0  0  0  0  0  0  0  0  0
    4.6645    0.1512    3.0162 H   0  0  0  0  0  0  0  0  0  0  0  0
    3.5824   -0.3436   -0.6602 H   0  0  0  0  0  0  0  0  0  0  0  0
    8.8887   -3.4023   -1.5982 H   0  0  0  0  0  0  0  0  0  0  0  0
    7.3014   -2.9301   -2.2984 H   0  0  0  0  0  0  0  0  0  0  0  0
    8.9447   -1.6067    2.7549 H   0  0  0  0  0  0  0  0  0  0  0  0
    5.4820    2.0391    1.0272 H   0  0  0  0  0  0  0  0  0  0  0  0
    4.2379    2.4776    3.5851 H   0  0  0  0  0  0  0  0  0  0  0  0
    3.4280    2.3662    0.0271 H   0  0  0  0  0  0  0  0  0  0  0  0
    2.4044    4.1279    0.9194 H   0  0  0  0  0  0  0  0  0  0  0  0
   -4.3943    0.5550   -0.6756 H   0  0  0  0  0  0  0  0  0  0  0  0
   -7.0334    0.4071   -1.8050 H   0  0  0  0  0  0  0  0  0  0  0  0
   -4.6373   -1.6269    0.0778 H   0  0  0  0  0  0  0  0  0  0  0  0
   -7.5708   -0.4051    3.5046 H   0  0  0  0  0  0  0  0  0  0  0  0
   -8.5269   -1.1928    2.1903 H   0  0  0  0  0  0  0  0  0  0  0  0
   -8.3348    0.6059    2.2106 H   0  0  0  0  0  0  0  0  0  0  0  0
  1  2  1  0
  1  3  1  0
  3  4  1  0
  4  5  1  0
  5  6  1  0
  6  7  1  0
  7  8  1  0
  7  9  2  0
  7 10  1  0
 10 11  1  0
 11 12  1  0
 11 13  2  0
 11 14  1  0
 14 15  1  0
 15 16  1  0
 16 17  1  0
 17 18  1  0
 18 19  1  0
 19 20  1  0
 20 21  2  0
 21 22  1  0
 22 23  2  0
 23 24  1  0
 23 25  1  0
 25 26  2  0
 26 27  1  0
 27 28  2  0
 18 29  1  0
 29 30  1  0
 29 31  1  0
 31 32  1  0
  4 33  1  0
 33 34  1  0
 33 35  1  0
 35 36  1  0
 36 37  1  0
 37 38  1  0
 37 39  2  0
 35  1  1  0
 31 16  1  0
 28 19  1  0
 28 22  1  0
  1 40  1  1
  2 41  1  0
  4 42  1  6
  5 43  1  0
  5 44  1  0
  8 45  1  0
 12 46  1  0
 15 47  1  0
 15 48  1  0
 16 49  1  1
 18 50  1  1
 20 51  1  0
 24 52  1  0
 24 53  1  0
 26 54  1  0
 29 55  1  6
 30 56  1  0
 31 57  1  6
 32 58  1  0
 33 59  1  1
 34 60  1  0
 35 61  1  1
 38 62  1  0
 38 63  1  0
 38 64  1  0
M  END
$$$$
