
     RDKit          3D

 55 55  0  0  0  0  0  0  0  0999 V2000
   -2.1015    5.0578    3.7968 C   0  0  0  0  0  0  0  0  0  0  0  0
   -2.3686    4.1937    2.6436 N   0  0  0  0  0  0  0  0  0  0  0  0
   -3.2607    4.6320    1.5679 C   0  0  0  0  0  0  0  0  0  0  0  0
   -1.7445    2.9013    2.5577 C   0  0  0  0  0  0  0  0  0  0  0  0
   -0.9914    2.5027    3.4888 O   0  0  0  0  0  0  0  0  0  0  0  0
   -2.0216    2.0691    1.4632 O   0  0  0  0  0  0  0  0  0  0  0  0
   -1.2851    0.9314    1.1011 C   0  0  0  0  0  0  0  0  0  0  0  0
    0.0946    0.8220    1.3487 C   0  0  0  0  0  0  0  0  0  0  0  0
    0.8029   -0.3239    0.9532 C   0  0  0  0  0  0  0  0  0  0  0  0
    0.1203   -1.3532    0.2815 C   0  0  0  0  0  0  0  0  0  0  0  0
   -1.2515   -1.2567    0.0289 C   0  0  0  0  0  0  0  0  0  0  0  0
   -1.8776   -2.3065   -0.6592 O   0  0  0  0  0  0  0  0  0  0  0  0
   -3.2255   -2.6726   -0.5315 C   0  0  0  0  0  0  0  0  0  0  0  0
   -3.9032   -2.2802    0.4582 O   0  0  0  0  0  0  0  0  0  0  0  0
   -3.8195   -3.5470   -1.5061 N   0  0  0  0  0  0  0  0  0  0  0  0
   -3.0127   -4.0153   -2.6352 C   0  0  0  0  0  0  0  0  0  0  0  0
   -5.2206   -3.9528   -1.3646 C   0  0  0  0  0  0  0  0  0  0  0  0
   -1.9456   -0.1008    0.4268 C   0  0  0  0  0  0  0  0  0  0  0  0
    2.3001   -0.3981    1.1856 C   0  0  0  0  0  0  0  0  0  0  0  0
    2.7212   -1.7262    1.3686 O   0  0  0  0  0  0  0  0  0  0  0  0
    3.0787    0.2324    0.0217 C   0  0  0  0  0  0  0  0  0  0  0  0
    2.8813   -0.5391   -1.2199 N   0  0  0  0  0  0  0  0  0  0  0  0
    3.8975   -0.3097   -2.2778 C   0  0  0  0  0  0  0  0  0  0  0  0
    3.4235   -1.0294   -3.5585 C   0  0  0  0  0  0  0  0  0  0  0  0
    4.0681    1.1933   -2.5961 C   0  0  0  0  0  0  0  0  0  0  0  0
    5.2543   -0.9233   -1.8675 C   0  0  0  0  0  0  0  0  0  0  0  0
   -2.6467    6.0220    3.7224 H   0  0  0  0  0  0  0  0  0  0  0  0
   -2.4231    4.5475    4.7291 H   0  0  0  0  0  0  0  0  0  0  0  0
   -1.0144    5.2767    3.8562 H   0  0  0  0  0  0  0  0  0  0  0  0
   -2.7043    4.6559    0.6071 H   0  0  0  0  0  0  0  0  0  0  0  0
   -3.6677    5.6469    1.7596 H   0  0  0  0  0  0  0  0  0  0  0  0
   -4.1136    3.9264    1.4785 H   0  0  0  0  0  0  0  0  0  0  0  0
    0.6304    1.6405    1.8106 H   0  0  0  0  0  0  0  0  0  0  0  0
    0.6545   -2.2326   -0.0564 H   0  0  0  0  0  0  0  0  0  0  0  0
   -3.5955   -4.6765   -3.3102 H   0  0  0  0  0  0  0  0  0  0  0  0
   -2.6539   -3.1452   -3.2248 H   0  0  0  0  0  0  0  0  0  0  0  0
   -2.1381   -4.5866   -2.2585 H   0  0  0  0  0  0  0  0  0  0  0  0
   -5.8729   -3.0540   -1.3728 H   0  0  0  0  0  0  0  0  0  0  0  0
   -5.5398   -4.6216   -2.1912 H   0  0  0  0  0  0  0  0  0  0  0  0
   -5.3579   -4.4954   -0.4055 H   0  0  0  0  0  0  0  0  0  0  0  0
   -2.9947    0.0194    0.1928 H   0  0  0  0  0  0  0  0  0  0  0  0
    2.5522    0.1833    2.1039 H   0  0  0  0  0  0  0  0  0  0  0  0
    2.3845   -2.0129    2.2579 H   0  0  0  0  0  0  0  0  0  0  0  0
    4.1465    0.2576    0.3166 H   0  0  0  0  0  0  0  0  0  0  0  0
    2.7416    1.2842   -0.1193 H   0  0  0  0  0  0  0  0  0  0  0  0
    1.9404   -0.2769   -1.5996 H   0  0  0  0  0  0  0  0  0  0  0  0
    3.2734   -2.1126   -3.3595 H   0  0  0  0  0  0  0  0  0  0  0  0
    4.1676   -0.9219   -4.3775 H   0  0  0  0  0  0  0  0  0  0  0  0
    2.4590   -0.6055   -3.9129 H   0  0  0  0  0  0  0  0  0  0  0  0
    4.7387    1.3334   -3.4714 H   0  0  0  0  0  0  0  0  0  0  0  0
    4.5196    1.7377   -1.7401 H   0  0  0  0  0  0  0  0  0  0  0  0
    3.0842    1.6539   -2.8294 H   0  0  0  0  0  0  0  0  0  0  0  0
    5.9552   -0.9388   -2.7302 H   0  0  0  0  0  0  0  0  0  0  0  0
    5.7488   -0.3392   -1.0651 H   0  0  0  0  0  0  0  0  0  0  0  0
    5.1131   -1.9664   -1.5113 H   0  0  0  0  0  0  0  0  0  0  0  0
  1  2  1  0
  2  3  1  0
  2  4  1  0
  4  5  2  0
  4  6  1  0
  6  7  1  0
  7  8  2  0
  8  9  1  0
  9 10  2  0
 10 11  1  0
 11 12  1  0
 12 13  1  0
 13 14  2  0
 13 15  1  0
 15 16  1  0
 15 17  1  0
 11 18  2  0
  9 19  1  0
 19 20  1  0
 19 21  1  0
 21 22  1  0
 22 23  1  0
 23 24  1  0
 23 25  1  0
 23 26  1  0
 18  7  1  0
  1 27  1  0
  1 28  1  0
  1 29  1  0
  3 30  1  0
  3 31  1  0
  3 32  1  0
  8 33  1  0
 10 34  1  0
 16 35  1  0
 16 36  1  0
 16 37  1  0
 17 38  1  0
 17 39  1  0
 17 40  1  0
 18 41  1  0
 19 42  1  0
 20 43  1  0
 21 44  1  0
 21 45  1  0
 22 46  1  0
 24 47  1  0
 24 48  1  0
 24 49  1  0
 25 50  1  0
 25 51  1  0
 25 52  1  0
 26 53  1  0
 26 54  1  0
 26 55  1  0
M  END
$$$$
