
     RDKit          3D

 51 55  0  0  0  0  0  0  0  0999 V2000
   -2.0637    0.0130   -0.6558 C   0  0  2  0  0  0  0  0  0  0  0  0
   -3.0479    0.5377   -1.6937 C   0  0  0  0  0  0  0  0  0  0  0  0
   -4.4047    0.5157   -0.9673 C   0  0  0  0  0  0  0  0  0  0  0  0
   -4.1093    0.2007    0.5142 C   0  0  2  0  0  0  0  0  0  0  0  0
   -4.9335    0.9601    1.3608 O   0  0  0  0  0  0  0  0  0  0  0  0
   -2.6090    0.5211    0.6845 C   0  0  2  0  0  0  0  0  0  0  0  0
   -2.4230    2.0575    0.9048 C   0  0  0  0  0  0  0  0  0  0  0  0
   -1.9082   -0.2688    1.8104 C   0  0  0  0  0  0  0  0  0  0  0  0
   -0.3716   -0.1043    1.7351 C   0  0  0  0  0  0  0  0  0  0  0  0
    0.2176   -0.4306    0.3245 C   0  0  1  0  0  0  0  0  0  0  0  0
   -0.5573    0.2973   -0.8333 C   0  0  1  0  0  0  0  0  0  0  0  0
   -0.0683   -0.2013   -2.2106 C   0  0  0  0  0  0  0  0  0  0  0  0
    1.4299    0.0425   -2.3950 C   0  0  0  0  0  0  0  0  0  0  0  0
    2.2053   -0.5724   -1.2277 C   0  0  1  0  0  0  0  0  0  0  0  0
    2.4625   -1.9458   -1.4357 O   0  0  0  0  0  0  0  0  0  0  0  0
    3.5776   -1.0784   -1.4840 C   0  0  2  0  0  0  0  0  0  0  0  0
    4.4800   -1.2624   -0.2928 C   0  0  0  0  0  0  0  0  0  0  0  0
    5.8459   -1.4078   -0.5530 O   0  0  0  0  0  0  0  0  0  0  0  0
    3.9942   -1.2625    0.9678 C   0  0  0  0  0  0  0  0  0  0  0  0
    2.5089   -1.1718    1.2295 C   0  0  0  0  0  0  0  0  0  0  0  0
    1.7766   -0.2289    0.2268 C   0  0  2  0  0  0  0  0  0  0  0  0
    2.1958    1.2340    0.5255 C   0  0  0  0  0  0  0  0  0  0  0  0
    4.8734   -1.3957    2.1052 C   0  0  0  0  0  0  0  0  0  0  0  0
    5.5767   -1.5021    3.0181 N   0  0  0  0  0  0  0  0  0  0  0  0
   -2.1764   -1.0999   -0.6817 H   0  0  0  0  0  0  0  0  0  0  0  0
   -2.7819    1.5735   -1.9981 H   0  0  0  0  0  0  0  0  0  0  0  0
   -3.0675   -0.1140   -2.5944 H   0  0  0  0  0  0  0  0  0  0  0  0
   -4.9032    1.5044   -1.0739 H   0  0  0  0  0  0  0  0  0  0  0  0
   -5.0679   -0.2648   -1.4003 H   0  0  0  0  0  0  0  0  0  0  0  0
   -4.2952   -0.8869    0.6856 H   0  0  0  0  0  0  0  0  0  0  0  0
   -4.8199    0.5848    2.2726 H   0  0  0  0  0  0  0  0  0  0  0  0
   -2.8374    2.3534    1.8919 H   0  0  0  0  0  0  0  0  0  0  0  0
   -1.3634    2.3738    0.9001 H   0  0  0  0  0  0  0  0  0  0  0  0
   -2.9490    2.6515    0.1292 H   0  0  0  0  0  0  0  0  0  0  0  0
   -2.1553   -1.3509    1.7317 H   0  0  0  0  0  0  0  0  0  0  0  0
   -2.2690    0.0795    2.8025 H   0  0  0  0  0  0  0  0  0  0  0  0
   -0.1029    0.9232    2.0470 H   0  0  0  0  0  0  0  0  0  0  0  0
    0.0661   -0.7913    2.4888 H   0  0  0  0  0  0  0  0  0  0  0  0
    0.0356   -1.5209    0.1776 H   0  0  0  0  0  0  0  0  0  0  0  0
   -0.3870    1.3905   -0.8006 H   0  0  0  0  0  0  0  0  0  0  0  0
   -0.6083    0.3348   -3.0204 H   0  0  0  0  0  0  0  0  0  0  0  0
   -0.2794   -1.2882   -2.3208 H   0  0  0  0  0  0  0  0  0  0  0  0
    1.6310    1.1343   -2.4333 H   0  0  0  0  0  0  0  0  0  0  0  0
    1.7518   -0.3960   -3.3654 H   0  0  0  0  0  0  0  0  0  0  0  0
    4.0023   -1.0106   -2.5078 H   0  0  0  0  0  0  0  0  0  0  0  0
    6.5415   -1.5341    0.1720 H   0  0  0  0  0  0  0  0  0  0  0  0
    2.0911   -2.1998    1.1577 H   0  0  0  0  0  0  0  0  0  0  0  0
    2.3412   -0.8277    2.2734 H   0  0  0  0  0  0  0  0  0  0  0  0
    1.6467    1.9623   -0.1022 H   0  0  0  0  0  0  0  0  0  0  0  0
    3.2780    1.3777    0.3197 H   0  0  0  0  0  0  0  0  0  0  0  0
    2.0305    1.4943    1.5910 H   0  0  0  0  0  0  0  0  0  0  0  0
  1  2  1  0
  2  3  1  0
  3  4  1  0
  4  5  1  0
  4  6  1  0
  6  7  1  1
  6  8  1  0
  8  9  1  0
  9 10  1  0
 10 11  1  0
 11 12  1  0
 12 13  1  0
 13 14  1  0
 14 15  1  1
 15 16  1  0
 16 17  1  0
 17 18  1  0
 17 19  2  0
 19 20  1  0
 20 21  1  0
 21 22  1  1
 19 23  1  0
 23 24  3  0
  6  1  1  0
 21 10  1  0
 11  1  1  0
 16 14  1  0
 21 14  1  0
  1 25  1  1
  2 26  1  0
  2 27  1  0
  3 28  1  0
  3 29  1  0
  4 30  1  6
  5 31  1  0
  7 32  1  0
  7 33  1  0
  7 34  1  0
  8 35  1  0
  8 36  1  0
  9 37  1  0
  9 38  1  0
 10 39  1  6
 11 40  1  6
 12 41  1  0
 12 42  1  0
 13 43  1  0
 13 44  1  0
 16 45  1  6
 18 46  1  0
 20 47  1  0
 20 48  1  0
 22 49  1  0
 22 50  1  0
 22 51  1  0
M  END
$$$$
