
     RDKit          3D

 46 46  0  0  0  0  0  0  0  0999 V2000
   -3.2048   -0.4055    0.3065 C   0  0  2  0  0  0  0  0  0  0  0  0
   -2.5578    0.9416   -0.0958 C   0  0  0  0  0  0  0  0  0  0  0  0
   -1.8582    1.6568    1.0712 C   0  0  0  0  0  0  0  0  0  0  0  0
   -2.8236    2.0480    2.1466 C   0  0  0  0  0  0  0  0  0  0  0  0
   -2.9399    1.2664    3.2918 O   0  0  0  0  0  0  0  0  0  0  0  0
   -3.5513    3.0665    2.0020 O   0  0  0  0  0  0  0  0  0  0  0  0
   -2.2354   -1.3067    0.9408 N   0  0  0  0  0  0  0  0  0  0  0  0
   -1.0341   -1.7710    0.3063 C   0  0  0  0  0  0  0  0  0  0  0  0
   -0.8631   -1.6045   -0.9317 O   0  0  0  0  0  0  0  0  0  0  0  0
   -0.0182   -2.4104    1.0912 N   0  0  0  0  0  0  0  0  0  0  0  0
    1.3740   -2.4711    0.6391 C   0  0  1  0  0  0  0  0  0  0  0  0
    2.0817   -1.1526    0.9906 C   0  0  0  0  0  0  0  0  0  0  0  0
    3.7283   -1.0250    0.1970 S   0  0  0  0  0  0  0  0  0  0  0  0
    3.1622   -0.3847   -1.4240 C   0  0  0  0  0  0  0  0  0  0  0  0
    2.6538    1.0281   -1.3135 C   0  0  0  0  0  0  0  0  0  0  0  0
    1.3086    1.3254   -1.5927 C   0  0  0  0  0  0  0  0  0  0  0  0
    0.8379    2.6367   -1.4785 C   0  0  0  0  0  0  0  0  0  0  0  0
    1.7050    3.6608   -1.0881 C   0  0  0  0  0  0  0  0  0  0  0  0
    1.2459    4.9315   -0.9753 F   0  0  0  0  0  0  0  0  0  0  0  0
    3.0463    3.3751   -0.8167 C   0  0  0  0  0  0  0  0  0  0  0  0
    3.5214    2.0648   -0.9313 C   0  0  0  0  0  0  0  0  0  0  0  0
    2.0708   -3.6467    1.2673 C   0  0  0  0  0  0  0  0  0  0  0  0
    2.6624   -4.6118    0.4581 O   0  0  0  0  0  0  0  0  0  0  0  0
    2.1312   -3.7581    2.5218 O   0  0  0  0  0  0  0  0  0  0  0  0
   -3.8657   -1.0891   -0.8603 C   0  0  0  0  0  0  0  0  0  0  0  0
   -3.4399   -0.8469   -2.1641 O   0  0  0  0  0  0  0  0  0  0  0  0
   -4.7897   -1.9201   -0.6516 O   0  0  0  0  0  0  0  0  0  0  0  0
   -4.0073   -0.1826    1.0445 H   0  0  0  0  0  0  0  0  0  0  0  0
   -3.3404    1.6125   -0.5144 H   0  0  0  0  0  0  0  0  0  0  0  0
   -1.8078    0.7807   -0.8984 H   0  0  0  0  0  0  0  0  0  0  0  0
   -1.3639    2.5743    0.6856 H   0  0  0  0  0  0  0  0  0  0  0  0
   -1.0607    1.0113    1.4975 H   0  0  0  0  0  0  0  0  0  0  0  0
   -3.5988    1.5093    4.0217 H   0  0  0  0  0  0  0  0  0  0  0  0
   -2.3946   -1.5630    1.9412 H   0  0  0  0  0  0  0  0  0  0  0  0
   -0.2248   -2.5915    2.0999 H   0  0  0  0  0  0  0  0  0  0  0  0
    1.3922   -2.6170   -0.4615 H   0  0  0  0  0  0  0  0  0  0  0  0
    1.4472   -0.2913    0.6983 H   0  0  0  0  0  0  0  0  0  0  0  0
    2.2193   -1.0823    2.0908 H   0  0  0  0  0  0  0  0  0  0  0  0
    4.0264   -0.3981   -2.1208 H   0  0  0  0  0  0  0  0  0  0  0  0
    2.3921   -1.0593   -1.8520 H   0  0  0  0  0  0  0  0  0  0  0  0
    0.6238    0.5434   -1.8945 H   0  0  0  0  0  0  0  0  0  0  0  0
   -0.1998    2.8578   -1.6928 H   0  0  0  0  0  0  0  0  0  0  0  0
    3.7191    4.1684   -0.5173 H   0  0  0  0  0  0  0  0  0  0  0  0
    4.5626    1.8565   -0.7182 H   0  0  0  0  0  0  0  0  0  0  0  0
    3.1404   -5.4076    0.8634 H   0  0  0  0  0  0  0  0  0  0  0  0
   -3.8729   -1.3190   -2.9487 H   0  0  0  0  0  0  0  0  0  0  0  0
  1  2  1  0
  2  3  1  0
  3  4  1  0
  4  5  1  0
  4  6  2  0
  1  7  1  0
  7  8  1  0
  8  9  2  0
  8 10  1  0
 10 11  1  0
 11 12  1  0
 12 13  1  0
 13 14  1  0
 14 15  1  0
 15 16  2  0
 16 17  1  0
 17 18  2  0
 18 19  1  0
 18 20  1  0
 20 21  2  0
 11 22  1  0
 22 23  1  0
 22 24  2  0
  1 25  1  0
 25 26  1  0
 25 27  2  0
 21 15  1  0
  1 28  1  1
  2 29  1  0
  2 30  1  0
  3 31  1  0
  3 32  1  0
  5 33  1  0
  7 34  1  0
 10 35  1  0
 11 36  1  6
 12 37  1  0
 12 38  1  0
 14 39  1  0
 14 40  1  0
 16 41  1  0
 17 42  1  0
 20 43  1  0
 21 44  1  0
 23 45  1  0
 26 46  1  0
M  END
$$$$
