
     RDKit          3D

 50 52  0  0  0  0  0  0  0  0999 V2000
   -0.6461    0.8066    2.5053 O   0  0  0  0  0  0  0  0  0  0  0  0
   -0.6109    0.7209    1.0917 C   0  0  0  0  0  0  0  0  0  0  0  0
    0.9138    0.5229    0.7420 C   0  0  0  0  0  0  0  0  0  0  0  0
    1.3320    0.3434   -0.7396 C   0  0  0  0  0  0  0  0  0  0  0  0
    2.6716   -0.2535   -0.9440 N   0  0  0  0  0  0  0  0  0  0  0  0
    2.7786   -1.6887   -0.6726 C   0  0  0  0  0  0  0  0  0  0  0  0
    4.2498   -1.9694   -0.3797 C   0  0  0  0  0  0  0  0  0  0  0  0
    4.9219   -0.6062   -0.2796 C   0  0  0  0  0  0  0  0  0  0  0  0
    3.7821    0.3944   -0.2472 C   0  0  0  0  0  0  0  0  0  0  0  0
   -1.5794   -0.4842    0.7005 C   0  0  0  0  0  0  0  0  0  0  0  0
   -2.3156   -0.3934   -0.6634 C   0  0  0  0  0  0  0  0  0  0  0  0
   -3.3236   -1.5392   -0.8379 C   0  0  0  0  0  0  0  0  0  0  0  0
   -2.6498   -2.9045   -0.6811 C   0  0  0  0  0  0  0  0  0  0  0  0
   -1.9466   -3.0082    0.6742 C   0  0  0  0  0  0  0  0  0  0  0  0
   -0.9205   -1.8818    0.8423 C   0  0  0  0  0  0  0  0  0  0  0  0
   -1.1257    2.0858    0.5592 C   0  0  0  0  0  0  0  0  0  0  0  0
   -1.6687    3.0519    1.4456 C   0  0  0  0  0  0  0  0  0  0  0  0
   -2.1184    4.2908    0.9804 C   0  0  0  0  0  0  0  0  0  0  0  0
   -2.0511    4.5977   -0.3760 C   0  0  0  0  0  0  0  0  0  0  0  0
   -1.5447    3.6611   -1.2730 C   0  0  0  0  0  0  0  0  0  0  0  0
   -1.0921    2.4206   -0.8160 C   0  0  0  0  0  0  0  0  0  0  0  0
   -0.3193   -0.0413    2.9025 H   0  0  0  0  0  0  0  0  0  0  0  0
    1.4484    1.4171    1.1316 H   0  0  0  0  0  0  0  0  0  0  0  0
    1.3039   -0.3277    1.3345 H   0  0  0  0  0  0  0  0  0  0  0  0
    1.3555    1.3414   -1.2217 H   0  0  0  0  0  0  0  0  0  0  0  0
    0.5928   -0.2707   -1.2841 H   0  0  0  0  0  0  0  0  0  0  0  0
    2.4403   -2.2631   -1.5615 H   0  0  0  0  0  0  0  0  0  0  0  0
    2.1722   -1.9957    0.2029 H   0  0  0  0  0  0  0  0  0  0  0  0
    4.3548   -2.5254    0.5779 H   0  0  0  0  0  0  0  0  0  0  0  0
    4.7070   -2.5681   -1.1979 H   0  0  0  0  0  0  0  0  0  0  0  0
    5.5503   -0.4286   -1.1802 H   0  0  0  0  0  0  0  0  0  0  0  0
    5.5548   -0.5286    0.6313 H   0  0  0  0  0  0  0  0  0  0  0  0
    4.0648    1.3372   -0.7627 H   0  0  0  0  0  0  0  0  0  0  0  0
    3.5384    0.6082    0.8146 H   0  0  0  0  0  0  0  0  0  0  0  0
   -2.3990   -0.4529    1.4563 H   0  0  0  0  0  0  0  0  0  0  0  0
   -1.6004   -0.4282   -1.5079 H   0  0  0  0  0  0  0  0  0  0  0  0
   -2.9000    0.5477   -0.7225 H   0  0  0  0  0  0  0  0  0  0  0  0
   -3.7824   -1.4729   -1.8481 H   0  0  0  0  0  0  0  0  0  0  0  0
   -4.1390   -1.4382   -0.0878 H   0  0  0  0  0  0  0  0  0  0  0  0
   -1.9124   -3.0553   -1.5002 H   0  0  0  0  0  0  0  0  0  0  0  0
   -3.4176   -3.7040   -0.7585 H   0  0  0  0  0  0  0  0  0  0  0  0
   -1.4288   -3.9892    0.7425 H   0  0  0  0  0  0  0  0  0  0  0  0
   -2.6972   -2.9600    1.4937 H   0  0  0  0  0  0  0  0  0  0  0  0
   -0.4456   -1.9988    1.8378 H   0  0  0  0  0  0  0  0  0  0  0  0
   -0.1377   -2.0145    0.0705 H   0  0  0  0  0  0  0  0  0  0  0  0
   -1.7544    2.8658    2.5072 H   0  0  0  0  0  0  0  0  0  0  0  0
   -2.5233    5.0144    1.6764 H   0  0  0  0  0  0  0  0  0  0  0  0
   -2.4029    5.5567   -0.7336 H   0  0  0  0  0  0  0  0  0  0  0  0
   -1.5135    3.8909   -2.3304 H   0  0  0  0  0  0  0  0  0  0  0  0
   -0.7662    1.7168   -1.5611 H   0  0  0  0  0  0  0  0  0  0  0  0
  1  2  1  0
  2  3  1  0
  3  4  1  0
  4  5  1  0
  5  6  1  0
  6  7  1  0
  7  8  1  0
  8  9  1  0
  2 10  1  0
 10 11  1  0
 11 12  1  0
 12 13  1  0
 13 14  1  0
 14 15  1  0
  2 16  1  0
 16 17  2  0
 17 18  1  0
 18 19  2  0
 19 20  1  0
 20 21  2  0
  9  5  1  0
 15 10  1  0
 21 16  1  0
  1 22  1  0
  3 23  1  0
  3 24  1  0
  4 25  1  0
  4 26  1  0
  6 27  1  0
  6 28  1  0
  7 29  1  0
  7 30  1  0
  8 31  1  0
  8 32  1  0
  9 33  1  0
  9 34  1  0
 10 35  1  0
 11 36  1  0
 11 37  1  0
 12 38  1  0
 12 39  1  0
 13 40  1  0
 13 41  1  0
 14 42  1  0
 14 43  1  0
 15 44  1  0
 15 45  1  0
 17 46  1  0
 18 47  1  0
 19 48  1  0
 20 49  1  0
 21 50  1  0
M  END
$$$$
