
     RDKit          3D

 53 54  0  0  0  0  0  0  0  0999 V2000
    5.0195    0.2399    0.0753 C   0  0  0  0  0  0  0  0  0  0  0  0
    3.9536    1.1221    0.7398 C   0  0  0  0  0  0  0  0  0  0  0  0
    4.5476    1.8020    1.9814 C   0  0  0  0  0  0  0  0  0  0  0  0
    2.6852    0.3239    1.1326 C   0  0  0  0  0  0  0  0  0  0  0  0
    1.8529   -0.1885   -0.0687 C   0  0  2  0  0  0  0  0  0  0  0  0
    0.4479   -0.3167    0.3261 N   0  0  0  0  0  0  0  0  0  0  0  0
   -0.6416    0.0173   -0.5478 C   0  0  0  0  0  0  0  0  0  0  0  0
   -0.4184    0.5176   -1.6842 O   0  0  0  0  0  0  0  0  0  0  0  0
   -2.0604   -0.2734   -0.1291 C   0  0  2  0  0  0  0  0  0  0  0  0
   -2.6048   -1.5087   -0.8731 C   0  0  0  0  0  0  0  0  0  0  0  0
   -1.8052   -2.7495   -0.5605 C   0  0  0  0  0  0  0  0  0  0  0  0
   -1.9818   -3.4150    0.6640 C   0  0  0  0  0  0  0  0  0  0  0  0
   -1.2114   -4.5407    0.9714 C   0  0  0  0  0  0  0  0  0  0  0  0
   -0.2591   -5.0078    0.0614 C   0  0  0  0  0  0  0  0  0  0  0  0
   -0.0744   -4.3489   -1.1570 C   0  0  0  0  0  0  0  0  0  0  0  0
   -0.8402   -3.2209   -1.4669 C   0  0  0  0  0  0  0  0  0  0  0  0
   -2.9041    0.8976   -0.3923 N   0  0  0  0  0  0  0  0  0  0  0  0
   -2.7667    2.1136    0.3631 C   0  0  0  0  0  0  0  0  0  0  0  0
   -2.0445    2.1270    1.3972 O   0  0  0  0  0  0  0  0  0  0  0  0
   -3.4712    3.3526   -0.0288 C   0  0  0  0  0  0  0  0  0  0  0  0
   -3.9649    3.5559   -1.3292 C   0  0  0  0  0  0  0  0  0  0  0  0
   -4.5928    4.7226   -1.6325 N   0  0  0  0  0  0  0  0  0  0  0  0
   -4.7520    5.7014   -0.7047 C   0  0  0  0  0  0  0  0  0  0  0  0
   -4.2523    5.5113    0.5831 C   0  0  0  0  0  0  0  0  0  0  0  0
   -3.6229    4.3471    0.8893 N   0  0  0  0  0  0  0  0  0  0  0  0
    2.3501   -1.6160   -0.6059 B   0  0  0  0  0  0  0  0  0  0  0  0
    2.4855   -1.8439   -2.0428 O   0  0  0  0  0  0  0  0  0  0  0  0
    2.4742   -2.7430    0.3159 O   0  0  0  0  0  0  0  0  0  0  0  0
    5.9644    0.8083   -0.0602 H   0  0  0  0  0  0  0  0  0  0  0  0
    5.2300   -0.6587    0.6941 H   0  0  0  0  0  0  0  0  0  0  0  0
    4.6858   -0.0744   -0.9329 H   0  0  0  0  0  0  0  0  0  0  0  0
    3.6683    1.9254    0.0249 H   0  0  0  0  0  0  0  0  0  0  0  0
    3.8009    2.4827    2.4434 H   0  0  0  0  0  0  0  0  0  0  0  0
    5.4337    2.4111    1.7018 H   0  0  0  0  0  0  0  0  0  0  0  0
    4.8557    1.0435    2.7331 H   0  0  0  0  0  0  0  0  0  0  0  0
    2.9503   -0.5106    1.8195 H   0  0  0  0  0  0  0  0  0  0  0  0
    2.0341    1.0103    1.7195 H   0  0  0  0  0  0  0  0  0  0  0  0
    1.9381    0.5437   -0.9005 H   0  0  0  0  0  0  0  0  0  0  0  0
    0.2308   -0.7987    1.2287 H   0  0  0  0  0  0  0  0  0  0  0  0
   -2.0931   -0.4885    0.9621 H   0  0  0  0  0  0  0  0  0  0  0  0
   -2.6098   -1.3177   -1.9694 H   0  0  0  0  0  0  0  0  0  0  0  0
   -3.6619   -1.6782   -0.5717 H   0  0  0  0  0  0  0  0  0  0  0  0
   -2.7110   -3.0580    1.3807 H   0  0  0  0  0  0  0  0  0  0  0  0
   -1.3505   -5.0492    1.9166 H   0  0  0  0  0  0  0  0  0  0  0  0
    0.3384   -5.8775    0.3019 H   0  0  0  0  0  0  0  0  0  0  0  0
    0.6692   -4.7062   -1.8574 H   0  0  0  0  0  0  0  0  0  0  0  0
   -0.6746   -2.7109   -2.4078 H   0  0  0  0  0  0  0  0  0  0  0  0
   -3.6609    0.8250   -1.1085 H   0  0  0  0  0  0  0  0  0  0  0  0
   -3.8360    2.8163   -2.1064 H   0  0  0  0  0  0  0  0  0  0  0  0
   -5.2559    6.6218   -0.9678 H   0  0  0  0  0  0  0  0  0  0  0  0
   -4.3623    6.2824    1.3339 H   0  0  0  0  0  0  0  0  0  0  0  0
    3.4412   -1.6766   -2.2384 H   0  0  0  0  0  0  0  0  0  0  0  0
    3.4275   -2.7440    0.5841 H   0  0  0  0  0  0  0  0  0  0  0  0
  1  2  1  0
  2  3  1  0
  2  4  1  0
  4  5  1  0
  5  6  1  0
  6  7  1  0
  7  8  2  0
  7  9  1  0
  9 10  1  0
 10 11  1  0
 11 12  2  0
 12 13  1  0
 13 14  2  0
 14 15  1  0
 15 16  2  0
  9 17  1  0
 17 18  1  0
 18 19  2  0
 18 20  1  0
 20 21  2  0
 21 22  1  0
 22 23  2  0
 23 24  1  0
 24 25  2  0
  5 26  1  0
 26 27  1  0
 26 28  1  0
 16 11  1  0
 25 20  1  0
  1 29  1  0
  1 30  1  0
  1 31  1  0
  2 32  1  0
  3 33  1  0
  3 34  1  0
  3 35  1  0
  4 36  1  0
  4 37  1  0
  5 38  1  6
  6 39  1  0
  9 40  1  1
 10 41  1  0
 10 42  1  0
 12 43  1  0
 13 44  1  0
 14 45  1  0
 15 46  1  0
 16 47  1  0
 17 48  1  0
 21 49  1  0
 23 50  1  0
 24 51  1  0
 27 52  1  0
 28 53  1  0
M  END
$$$$
