
     RDKit          3D

 52 55  0  0  0  0  0  0  0  0999 V2000
    7.4162    0.5108    1.8131 N   0  0  0  0  0  0  0  0  0  0  0  0
    6.2901    0.3245    0.9591 C   0  0  0  0  0  0  0  0  0  0  0  0
    5.7370    1.3857    0.3249 N   0  0  0  0  0  0  0  0  0  0  0  0
    4.6570    1.2384   -0.4836 C   0  0  0  0  0  0  0  0  0  0  0  0
    4.1162    2.3662   -1.1043 C   0  0  0  0  0  0  0  0  0  0  0  0
    2.9900    2.2480   -1.9118 C   0  0  0  0  0  0  0  0  0  0  0  0
    2.3730    1.0097   -2.0780 C   0  0  0  0  0  0  0  0  0  0  0  0
    2.8783   -0.1413   -1.4398 C   0  0  0  0  0  0  0  0  0  0  0  0
    2.2058   -1.3704   -1.5372 O   0  0  0  0  0  0  0  0  0  0  0  0
    0.7969   -1.5593   -1.6982 C   0  0  0  0  0  0  0  0  0  0  0  0
    0.0735   -1.5089   -0.3364 C   0  0  0  0  0  0  0  0  0  0  0  0
   -1.3988   -1.9799   -0.4632 C   0  0  0  0  0  0  0  0  0  0  0  0
   -2.3647   -0.7922   -0.5880 C   0  0  0  0  0  0  0  0  0  0  0  0
   -2.2978    0.1304    0.5785 N   0  0  0  0  0  0  0  0  0  0  0  0
   -3.4021   -0.0959    1.5332 C   0  0  0  0  0  0  0  0  0  0  0  0
   -4.6895    0.4753    0.9952 C   0  0  0  0  0  0  0  0  0  0  0  0
   -5.7599   -0.3733    0.6636 C   0  0  0  0  0  0  0  0  0  0  0  0
   -6.9495    0.1576    0.1562 C   0  0  0  0  0  0  0  0  0  0  0  0
   -7.0806    1.5369   -0.0237 C   0  0  0  0  0  0  0  0  0  0  0  0
   -6.0221    2.3883    0.3034 C   0  0  0  0  0  0  0  0  0  0  0  0
   -4.8291    1.8634    0.8113 C   0  0  0  0  0  0  0  0  0  0  0  0
   -3.8113    2.7057    1.1228 F   0  0  0  0  0  0  0  0  0  0  0  0
   -0.9918    0.1238    1.2815 C   0  0  0  0  0  0  0  0  0  0  0  0
    0.1688   -0.1060    0.3095 C   0  0  0  0  0  0  0  0  0  0  0  0
    4.0765   -0.0417   -0.6797 C   0  0  0  0  0  0  0  0  0  0  0  0
    4.7141   -1.1421   -0.0437 C   0  0  0  0  0  0  0  0  0  0  0  0
    4.3177   -2.5001   -0.2593 N   0  0  0  0  0  0  0  0  0  0  0  0
    5.7833   -0.9175    0.7654 N   0  0  0  0  0  0  0  0  0  0  0  0
    7.8515   -0.3043    2.2994 H   0  0  0  0  0  0  0  0  0  0  0  0
    7.8157    1.4641    1.9609 H   0  0  0  0  0  0  0  0  0  0  0  0
    4.5707    3.3391   -0.9617 H   0  0  0  0  0  0  0  0  0  0  0  0
    2.5832    3.1239   -2.4009 H   0  0  0  0  0  0  0  0  0  0  0  0
    1.5000    0.9648   -2.7106 H   0  0  0  0  0  0  0  0  0  0  0  0
    0.3519   -0.8465   -2.4198 H   0  0  0  0  0  0  0  0  0  0  0  0
    0.6570   -2.5718   -2.1330 H   0  0  0  0  0  0  0  0  0  0  0  0
    0.5905   -2.2303    0.3361 H   0  0  0  0  0  0  0  0  0  0  0  0
   -1.5357   -2.6605   -1.3315 H   0  0  0  0  0  0  0  0  0  0  0  0
   -1.6772   -2.5613    0.4433 H   0  0  0  0  0  0  0  0  0  0  0  0
   -3.3933   -1.1826   -0.7498 H   0  0  0  0  0  0  0  0  0  0  0  0
   -2.1082   -0.2186   -1.5046 H   0  0  0  0  0  0  0  0  0  0  0  0
   -3.5027   -1.1812    1.7626 H   0  0  0  0  0  0  0  0  0  0  0  0
   -3.1945    0.4163    2.5002 H   0  0  0  0  0  0  0  0  0  0  0  0
   -5.6733   -1.4449    0.7939 H   0  0  0  0  0  0  0  0  0  0  0  0
   -7.7699   -0.5008   -0.0986 H   0  0  0  0  0  0  0  0  0  0  0  0
   -8.0023    1.9459   -0.4169 H   0  0  0  0  0  0  0  0  0  0  0  0
   -6.1269    3.4564    0.1626 H   0  0  0  0  0  0  0  0  0  0  0  0
   -0.8480    1.1061    1.7813 H   0  0  0  0  0  0  0  0  0  0  0  0
   -0.9613   -0.6667    2.0670 H   0  0  0  0  0  0  0  0  0  0  0  0
    0.1256    0.6889   -0.4661 H   0  0  0  0  0  0  0  0  0  0  0  0
    1.1330   -0.0064    0.8538 H   0  0  0  0  0  0  0  0  0  0  0  0
    4.6295   -3.2355    0.4132 H   0  0  0  0  0  0  0  0  0  0  0  0
    3.9873   -2.8302   -1.1912 H   0  0  0  0  0  0  0  0  0  0  0  0
  1  2  1  0
  2  3  2  0
  3  4  1  0
  4  5  2  0
  5  6  1  0
  6  7  2  0
  7  8  1  0
  8  9  1  0
  9 10  1  0
 10 11  1  0
 11 12  1  0
 12 13  1  0
 13 14  1  0
 14 15  1  0
 15 16  1  0
 16 17  2  0
 17 18  1  0
 18 19  2  0
 19 20  1  0
 20 21  2  0
 21 22  1  0
 14 23  1  0
 23 24  1  0
  8 25  2  0
 25 26  1  0
 26 27  1  0
 26 28  2  0
 28  2  1  0
 25  4  1  0
 24 11  1  0
 21 16  1  0
  1 29  1  0
  1 30  1  0
  5 31  1  0
  6 32  1  0
  7 33  1  0
 10 34  1  0
 10 35  1  0
 11 36  1  0
 12 37  1  0
 12 38  1  0
 13 39  1  0
 13 40  1  0
 15 41  1  0
 15 42  1  0
 17 43  1  0
 18 44  1  0
 19 45  1  0
 20 46  1  0
 23 47  1  0
 23 48  1  0
 24 49  1  0
 24 50  1  0
 27 51  1  0
 27 52  1  0
M  END
$$$$
