
     RDKit          3D

 18 17  0  0  0  0  0  0  0  0999 V2000
   -1.9664   -0.2143    1.1523 C   0  0  0  0  0  0  0  0  0  0  0  0
   -0.9751   -0.1782   -0.0136 C   0  0  2  0  0  0  0  0  0  0  0  0
    0.4041   -0.2501    0.4789 N   0  0  0  0  0  0  0  0  0  0  0  0
    1.5111   -0.5239   -0.3910 C   0  0  0  0  0  0  0  0  0  0  0  0
    2.8976   -0.5789    0.1624 C   0  0  0  0  0  0  0  0  0  0  0  0
    1.3208   -0.7372   -1.6192 O   0  0  0  0  0  0  0  0  0  0  0  0
   -1.1730    1.0740   -0.8182 C   0  0  0  0  0  0  0  0  0  0  0  0
   -1.7909    1.0053   -2.0629 O   0  0  0  0  0  0  0  0  0  0  0  0
   -0.8037    2.1893   -0.3607 O   0  0  0  0  0  0  0  0  0  0  0  0
   -3.0092   -0.1879    0.7694 H   0  0  0  0  0  0  0  0  0  0  0  0
   -1.8085    0.6525    1.8299 H   0  0  0  0  0  0  0  0  0  0  0  0
   -1.8305   -1.1513    1.7332 H   0  0  0  0  0  0  0  0  0  0  0  0
   -1.1769   -1.0635   -0.6564 H   0  0  0  0  0  0  0  0  0  0  0  0
    0.5991   -0.0996    1.4955 H   0  0  0  0  0  0  0  0  0  0  0  0
    3.6423   -0.6720   -0.6566 H   0  0  0  0  0  0  0  0  0  0  0  0
    2.9916   -1.4541    0.8383 H   0  0  0  0  0  0  0  0  0  0  0  0
    3.1081    0.3490    0.7340 H   0  0  0  0  0  0  0  0  0  0  0  0
   -1.9403    1.8411   -2.6154 H   0  0  0  0  0  0  0  0  0  0  0  0
  1  2  1  0
  2  3  1  0
  3  4  1  0
  4  5  1  0
  4  6  2  0
  2  7  1  0
  7  8  1  0
  7  9  2  0
  1 10  1  0
  1 11  1  0
  1 12  1  0
  2 13  1  6
  3 14  1  0
  5 15  1  0
  5 16  1  0
  5 17  1  0
  8 18  1  0
M  END
$$$$
