
     RDKit          3D

 35 36  0  0  0  0  0  0  0  0999 V2000
    1.0012   -0.4226   -0.8729 C   0  0  1  0  0  0  0  0  0  0  0  0
   -0.2516    0.0471   -0.2478 N   0  0  0  0  0  0  0  0  0  0  0  0
   -1.4146   -0.1693   -1.1182 C   0  0  0  0  0  0  0  0  0  0  0  0
   -2.6749    0.1133   -0.3497 C   0  0  0  0  0  0  0  0  0  0  0  0
   -3.2817    1.3785   -0.4172 C   0  0  0  0  0  0  0  0  0  0  0  0
   -4.4332    1.6471    0.3297 C   0  0  0  0  0  0  0  0  0  0  0  0
   -4.9786    0.6604    1.1559 C   0  0  0  0  0  0  0  0  0  0  0  0
   -4.3708   -0.5954    1.2403 C   0  0  0  0  0  0  0  0  0  0  0  0
   -3.2194   -0.8682    0.4951 C   0  0  0  0  0  0  0  0  0  0  0  0
    2.1949    0.3229   -0.3086 C   0  0  0  0  0  0  0  0  0  0  0  0
    3.1874    0.8237   -1.1704 C   0  0  0  0  0  0  0  0  0  0  0  0
    4.3032    1.4889   -0.6531 C   0  0  0  0  0  0  0  0  0  0  0  0
    4.4433    1.6547    0.7269 C   0  0  0  0  0  0  0  0  0  0  0  0
    3.4693    1.1528    1.5932 C   0  0  0  0  0  0  0  0  0  0  0  0
    2.3518    0.4868    1.0813 C   0  0  0  0  0  0  0  0  0  0  0  0
    1.2348   -2.2124   -0.5647 P   0  0  0  0  0  5  0  0  0  0  0  0
    2.8234   -2.6395   -0.9623 O   0  0  0  0  0  0  0  0  0  0  0  0
    0.9594   -2.5572    1.0699 O   0  0  0  0  0  0  0  0  0  0  0  0
    0.2834   -3.0217   -1.4166 O   0  0  0  0  0  0  0  0  0  0  0  0
    0.9659   -0.2657   -1.9756 H   0  0  0  0  0  0  0  0  0  0  0  0
   -0.1869    1.0821   -0.0928 H   0  0  0  0  0  0  0  0  0  0  0  0
   -1.3533    0.4896   -2.0142 H   0  0  0  0  0  0  0  0  0  0  0  0
   -1.4500   -1.2172   -1.4811 H   0  0  0  0  0  0  0  0  0  0  0  0
   -2.8635    2.1552   -1.0453 H   0  0  0  0  0  0  0  0  0  0  0  0
   -4.9004    2.6217    0.2710 H   0  0  0  0  0  0  0  0  0  0  0  0
   -5.8689    0.8706    1.7344 H   0  0  0  0  0  0  0  0  0  0  0  0
   -4.7896   -1.3562    1.8862 H   0  0  0  0  0  0  0  0  0  0  0  0
   -2.7514   -1.8416    0.5767 H   0  0  0  0  0  0  0  0  0  0  0  0
    3.1003    0.6979   -2.2424 H   0  0  0  0  0  0  0  0  0  0  0  0
    5.0614    1.8738   -1.3229 H   0  0  0  0  0  0  0  0  0  0  0  0
    5.3084    2.1691    1.1250 H   0  0  0  0  0  0  0  0  0  0  0  0
    3.5812    1.2776    2.6625 H   0  0  0  0  0  0  0  0  0  0  0  0
    1.6093    0.0989    1.7673 H   0  0  0  0  0  0  0  0  0  0  0  0
    2.9113   -3.5827   -0.6732 H   0  0  0  0  0  0  0  0  0  0  0  0
   -0.0011   -2.3631    1.2137 H   0  0  0  0  0  0  0  0  0  0  0  0
  1  2  1  0
  2  3  1  0
  3  4  1  0
  4  5  2  0
  5  6  1  0
  6  7  2  0
  7  8  1  0
  8  9  2  0
  1 10  1  0
 10 11  2  0
 11 12  1  0
 12 13  2  0
 13 14  1  0
 14 15  2  0
  1 16  1  0
 16 17  1  0
 16 18  1  0
 16 19  2  0
  9  4  1  0
 15 10  1  0
  1 20  1  6
  2 21  1  0
  3 22  1  0
  3 23  1  0
  5 24  1  0
  6 25  1  0
  7 26  1  0
  8 27  1  0
  9 28  1  0
 11 29  1  0
 12 30  1  0
 13 31  1  0
 14 32  1  0
 15 33  1  0
 17 34  1  0
 18 35  1  0
M  END
$$$$
