
     RDKit          3D

 73 78  0  0  0  0  0  0  0  0999 V2000
   -8.8327    2.9891    1.0693 N   0  0  0  0  0  0  0  0  0  0  0  0
   -7.8698    1.9414    1.2131 C   0  0  0  0  0  0  0  0  0  0  0  0
   -6.7380    2.2181    1.6948 O   0  0  0  0  0  0  0  0  0  0  0  0
   -8.1688    0.5495    0.7949 C   0  0  0  0  0  0  0  0  0  0  0  0
   -7.1207   -0.3438    0.5128 C   0  0  0  0  0  0  0  0  0  0  0  0
   -7.3757   -1.6372    0.1381 N   0  0  0  0  0  4  0  0  0  0  0  0
   -8.6645   -2.0749    0.0083 C   0  0  0  0  0  0  0  0  0  0  0  0
   -9.7347   -1.2268    0.2889 C   0  0  0  0  0  0  0  0  0  0  0  0
   -9.4875    0.0841    0.6884 C   0  0  0  0  0  0  0  0  0  0  0  0
   -6.2694   -2.5522   -0.1956 C   0  0  2  0  0  0  0  0  0  0  0  0
   -5.1647   -2.3373    0.6602 O   0  0  0  0  0  0  0  0  0  0  0  0
   -3.9842   -2.3559   -0.1225 C   0  0  2  0  0  0  0  0  0  0  0  0
   -3.2890   -0.9925   -0.0216 C   0  0  0  0  0  0  0  0  0  0  0  0
   -3.0585   -0.6904    1.3346 O   0  0  0  0  0  0  0  0  0  0  0  0
   -2.3378    0.8525    1.4241 P   0  0  0  0  0  5  0  0  0  0  0  0
   -3.3842    1.9990    0.7501 O   0  0  0  0  0  1  0  0  0  0  0  0
   -2.1144    1.2131    2.8758 O   0  0  0  0  0  0  0  0  0  0  0  0
   -0.8665    0.8875    0.5644 O   0  0  0  0  0  0  0  0  0  0  0  0
    0.2279   -0.1614    1.3464 P   0  0  0  0  0  5  0  0  0  0  0  0
    0.6079    0.4173    2.8932 O   0  0  0  0  0  0  0  0  0  0  0  0
   -0.3637   -1.5477    1.4708 O   0  0  0  0  0  0  0  0  0  0  0  0
    1.6494   -0.2770    0.4069 O   0  0  0  0  0  0  0  0  0  0  0  0
    2.2679    0.9895    0.3061 C   0  0  0  0  0  0  0  0  0  0  0  0
    3.4822    1.0575    1.2419 C   0  0  1  0  0  0  0  0  0  0  0  0
    4.4175    0.0632    0.8858 O   0  0  0  0  0  0  0  0  0  0  0  0
    5.7137    0.6008    1.0580 C   0  0  2  0  0  0  0  0  0  0  0  0
    5.6074    2.0661    1.4982 C   0  0  2  0  0  0  0  0  0  0  0  0
    5.9024    2.2114    2.8692 O   0  0  0  0  0  0  0  0  0  0  0  0
    4.1731    2.4158    1.1809 C   0  0  2  0  0  0  0  0  0  0  0  0
    3.6384    3.3157    2.1176 O   0  0  0  0  0  0  0  0  0  0  0  0
    6.4576    0.4981   -0.1996 N   0  0  0  0  0  0  0  0  0  0  0  0
    5.9989    0.7045   -1.4646 C   0  0  0  0  0  0  0  0  0  0  0  0
    6.9728    0.6356   -2.4163 N   0  0  0  0  0  0  0  0  0  0  0  0
    8.0729    0.3855   -1.6848 C   0  0  0  0  0  0  0  0  0  0  0  0
    7.7728    0.3118   -0.3618 C   0  0  0  0  0  0  0  0  0  0  0  0
    8.7149    0.1060    0.6043 N   0  0  0  0  0  0  0  0  0  0  0  0
   10.0210   -0.0433    0.2111 C   0  0  0  0  0  0  0  0  0  0  0  0
   10.3201    0.0264   -1.1222 N   0  0  0  0  0  0  0  0  0  0  0  0
   11.4898   -0.0734   -1.7658 C   0  0  0  0  0  0  0  0  0  0  0  0
   11.2222    0.0854   -3.1186 C   0  0  0  0  0  0  0  0  0  0  0  0
    9.8946    0.2838   -3.3205 N   0  0  0  0  0  0  0  0  0  0  0  0
    9.3918    0.2371   -2.0719 C   0  0  0  0  0  0  0  0  0  0  0  0
   -4.3437   -2.6990   -1.5773 C   0  0  1  0  0  0  0  0  0  0  0  0
   -4.1013   -4.0588   -1.8596 O   0  0  0  0  0  0  0  0  0  0  0  0
   -5.8128   -2.3504   -1.6396 C   0  0  1  0  0  0  0  0  0  0  0  0
   -6.5350   -3.1168   -2.5757 O   0  0  0  0  0  0  0  0  0  0  0  0
   -8.6161    3.9465    1.4254 H   0  0  0  0  0  0  0  0  0  0  0  0
   -9.7200    2.8523    0.5383 H   0  0  0  0  0  0  0  0  0  0  0  0
   -6.0987    0.0060    0.5833 H   0  0  0  0  0  0  0  0  0  0  0  0
   -8.8735   -3.0889   -0.3119 H   0  0  0  0  0  0  0  0  0  0  0  0
  -10.7519   -1.5861    0.1995 H   0  0  0  0  0  0  0  0  0  0  0  0
  -10.3293    0.7188    0.9288 H   0  0  0  0  0  0  0  0  0  0  0  0
   -6.5926   -3.6069   -0.0389 H   0  0  0  0  0  0  0  0  0  0  0  0
   -3.2925   -3.1230    0.2916 H   0  0  0  0  0  0  0  0  0  0  0  0
   -2.3252   -1.0488   -0.5769 H   0  0  0  0  0  0  0  0  0  0  0  0
   -3.9419   -0.2243   -0.4950 H   0  0  0  0  0  0  0  0  0  0  0  0
    0.6870    1.3989    2.7888 H   0  0  0  0  0  0  0  0  0  0  0  0
    2.6206    1.1065   -0.7406 H   0  0  0  0  0  0  0  0  0  0  0  0
    1.5861    1.8522    0.4905 H   0  0  0  0  0  0  0  0  0  0  0  0
    3.1479    0.8602    2.2843 H   0  0  0  0  0  0  0  0  0  0  0  0
    6.2382    0.0012    1.8350 H   0  0  0  0  0  0  0  0  0  0  0  0
    6.2987    2.7211    0.9224 H   0  0  0  0  0  0  0  0  0  0  0  0
    5.2969    1.6143    3.3829 H   0  0  0  0  0  0  0  0  0  0  0  0
    4.1273    2.8456    0.1515 H   0  0  0  0  0  0  0  0  0  0  0  0
    2.7809    3.6407    1.7387 H   0  0  0  0  0  0  0  0  0  0  0  0
    4.9647    0.9202   -1.6975 H   0  0  0  0  0  0  0  0  0  0  0  0
   10.7976   -0.2091    0.9463 H   0  0  0  0  0  0  0  0  0  0  0  0
   12.4523   -0.2426   -1.3006 H   0  0  0  0  0  0  0  0  0  0  0  0
   11.9563    0.0595   -3.9126 H   0  0  0  0  0  0  0  0  0  0  0  0
   -3.7715   -2.0867   -2.3095 H   0  0  0  0  0  0  0  0  0  0  0  0
   -4.5377   -4.6077   -1.1561 H   0  0  0  0  0  0  0  0  0  0  0  0
   -5.9083   -1.2763   -1.9160 H   0  0  0  0  0  0  0  0  0  0  0  0
   -6.5951   -4.0508   -2.2470 H   0  0  0  0  0  0  0  0  0  0  0  0
  1  2  1  0
  2  3  2  0
  2  4  1  0
  4  5  2  0
  5  6  1  0
  6  7  2  0
  7  8  1  0
  8  9  2  0
  6 10  1  0
 10 11  1  0
 11 12  1  0
 12 13  1  0
 13 14  1  0
 14 15  1  0
 15 16  1  0
 15 17  2  0
 15 18  1  0
 18 19  1  0
 19 20  1  0
 19 21  2  0
 19 22  1  0
 22 23  1  0
 23 24  1  0
 24 25  1  0
 25 26  1  0
 26 27  1  0
 27 28  1  0
 27 29  1  0
 29 30  1  0
 26 31  1  0
 31 32  1  0
 32 33  2  0
 33 34  1  0
 34 35  2  0
 35 36  1  0
 36 37  2  0
 37 38  1  0
 38 39  1  0
 39 40  2  0
 40 41  1  0
 41 42  2  0
 12 43  1  0
 43 44  1  0
 43 45  1  0
 45 46  1  0
  9  4  1  0
 45 10  1  0
 29 24  1  0
 35 31  1  0
 42 38  1  0
 42 34  1  0
  1 47  1  0
  1 48  1  0
  5 49  1  0
  7 50  1  0
  8 51  1  0
  9 52  1  0
 10 53  1  6
 12 54  1  1
 13 55  1  0
 13 56  1  0
 20 57  1  0
 23 58  1  0
 23 59  1  0
 24 60  1  1
 26 61  1  1
 27 62  1  6
 28 63  1  0
 29 64  1  6
 30 65  1  0
 32 66  1  0
 37 67  1  0
 39 68  1  0
 40 69  1  0
 43 70  1  6
 44 71  1  0
 45 72  1  6
 46 73  1  0
M  CHG  2   6   1  16  -1
M  END
$$$$
