
     RDKit          3D

 39 39  0  0  0  0  0  0  0  0999 V2000
   -3.5934   -1.5537   -0.7278 C   0  0  0  0  0  0  0  0  0  0  0  0
   -2.4105   -1.3405    0.2204 C   0  0  0  0  0  0  0  0  0  0  0  0
   -2.1333    0.0799    0.5418 N   0  0  0  0  0  0  0  0  0  0  0  0
   -3.2341    0.7954    1.2308 C   0  0  0  0  0  0  0  0  0  0  0  0
   -4.1535    1.6034    0.3004 C   0  0  0  0  0  0  0  0  0  0  0  0
   -1.4470    0.8427   -0.5205 C   0  0  0  0  0  0  0  0  0  0  0  0
   -0.0360    0.3643   -0.6834 C   0  0  0  0  0  0  0  0  0  0  0  0
    0.3101   -0.2051   -1.7541 O   0  0  0  0  0  0  0  0  0  0  0  0
    0.9117    0.5596    0.3744 N   0  0  0  0  0  0  0  0  0  0  0  0
    2.2684    0.1013    0.2773 C   0  0  0  0  0  0  0  0  0  0  0  0
    2.5648   -1.2817    0.3190 C   0  0  0  0  0  0  0  0  0  0  0  0
    1.4786   -2.3117    0.4737 C   0  0  0  0  0  0  0  0  0  0  0  0
    3.8970   -1.7059    0.1958 C   0  0  0  0  0  0  0  0  0  0  0  0
    4.9281   -0.7745    0.0776 C   0  0  0  0  0  0  0  0  0  0  0  0
    4.6437    0.5906    0.0735 C   0  0  0  0  0  0  0  0  0  0  0  0
    3.3176    1.0405    0.1682 C   0  0  0  0  0  0  0  0  0  0  0  0
    3.0275    2.5166    0.1547 C   0  0  0  0  0  0  0  0  0  0  0  0
   -4.5476   -1.2870   -0.2288 H   0  0  0  0  0  0  0  0  0  0  0  0
   -3.4734   -0.9688   -1.6617 H   0  0  0  0  0  0  0  0  0  0  0  0
   -3.6492   -2.6282   -1.0021 H   0  0  0  0  0  0  0  0  0  0  0  0
   -2.6068   -1.8944    1.1638 H   0  0  0  0  0  0  0  0  0  0  0  0
   -1.5113   -1.8126   -0.2283 H   0  0  0  0  0  0  0  0  0  0  0  0
   -3.8532    0.0809    1.8170 H   0  0  0  0  0  0  0  0  0  0  0  0
   -2.7883    1.4955    1.9693 H   0  0  0  0  0  0  0  0  0  0  0  0
   -3.6366    2.5117   -0.0725 H   0  0  0  0  0  0  0  0  0  0  0  0
   -4.4958    1.0066   -0.5661 H   0  0  0  0  0  0  0  0  0  0  0  0
   -5.0474    1.9358    0.8689 H   0  0  0  0  0  0  0  0  0  0  0  0
   -1.9965    0.7716   -1.4831 H   0  0  0  0  0  0  0  0  0  0  0  0
   -1.3884    1.9177   -0.2443 H   0  0  0  0  0  0  0  0  0  0  0  0
    0.6512    1.1776    1.1755 H   0  0  0  0  0  0  0  0  0  0  0  0
    0.6917   -1.9503    1.1687 H   0  0  0  0  0  0  0  0  0  0  0  0
    1.8835   -3.2572    0.8935 H   0  0  0  0  0  0  0  0  0  0  0  0
    1.0269   -2.5295   -0.5159 H   0  0  0  0  0  0  0  0  0  0  0  0
    4.1405   -2.7613    0.2035 H   0  0  0  0  0  0  0  0  0  0  0  0
    5.9532   -1.1122   -0.0056 H   0  0  0  0  0  0  0  0  0  0  0  0
    5.4605    1.2968   -0.0107 H   0  0  0  0  0  0  0  0  0  0  0  0
    3.9373    3.1104   -0.0770 H   0  0  0  0  0  0  0  0  0  0  0  0
    2.2631    2.7453   -0.6177 H   0  0  0  0  0  0  0  0  0  0  0  0
    2.6471    2.8301    1.1493 H   0  0  0  0  0  0  0  0  0  0  0  0
  1  2  1  0
  2  3  1  0
  3  4  1  0
  4  5  1  0
  3  6  1  0
  6  7  1  0
  7  8  2  0
  7  9  1  0
  9 10  1  0
 10 11  2  0
 11 12  1  0
 11 13  1  0
 13 14  2  0
 14 15  1  0
 15 16  2  0
 16 17  1  0
 16 10  1  0
  1 18  1  0
  1 19  1  0
  1 20  1  0
  2 21  1  0
  2 22  1  0
  4 23  1  0
  4 24  1  0
  5 25  1  0
  5 26  1  0
  5 27  1  0
  6 28  1  0
  6 29  1  0
  9 30  1  0
 12 31  1  0
 12 32  1  0
 12 33  1  0
 13 34  1  0
 14 35  1  0
 15 36  1  0
 17 37  1  0
 17 38  1  0
 17 39  1  0
M  END
$$$$
