
     RDKit          3D

 41 43  0  0  0  0  0  0  0  0999 V2000
    8.7107   -0.2344    1.5210 F   0  0  0  0  0  0  0  0  0  0  0  0
    7.7907    0.7003    1.0781 C   0  0  0  0  0  0  0  0  0  0  0  0
    8.3946    1.5177    0.1411 F   0  0  0  0  0  0  0  0  0  0  0  0
    7.3996    1.4682    2.1614 F   0  0  0  0  0  0  0  0  0  0  0  0
    6.5994    0.0212    0.4503 C   0  0  0  0  0  0  0  0  0  0  0  0
    5.3434    0.6541    0.4408 C   0  0  0  0  0  0  0  0  0  0  0  0
    4.2359    0.0448   -0.1694 C   0  0  0  0  0  0  0  0  0  0  0  0
    2.9688    0.7249   -0.1691 N   0  0  0  0  0  0  0  0  0  0  0  0
    1.6972    0.0618   -0.0992 C   0  0  0  0  0  0  0  0  0  0  0  0
    1.6355   -1.1700    0.1640 O   0  0  0  0  0  0  0  0  0  0  0  0
    0.4967    0.8140   -0.3321 N   0  0  0  0  0  0  0  0  0  0  0  0
   -0.8296    0.3203   -0.0767 C   0  0  0  0  0  0  0  0  0  0  0  0
   -1.8857    0.7264   -0.9053 C   0  0  0  0  0  0  0  0  0  0  0  0
   -3.1880    0.2790   -0.6657 C   0  0  0  0  0  0  0  0  0  0  0  0
   -3.4584   -0.5614    0.4283 C   0  0  0  0  0  0  0  0  0  0  0  0
   -4.7483   -1.0455    0.6922 O   0  0  0  0  0  0  0  0  0  0  0  0
   -5.9445   -0.3671    0.4155 C   0  0  0  0  0  0  0  0  0  0  0  0
   -7.0940   -1.1138    0.1387 C   0  0  0  0  0  0  0  0  0  0  0  0
   -8.2986   -0.4563   -0.1229 C   0  0  0  0  0  0  0  0  0  0  0  0
   -8.3543    0.9018   -0.0942 N   0  0  0  0  0  0  0  0  0  0  0  0
   -7.2574    1.6535    0.1887 C   0  0  0  0  0  0  0  0  0  0  0  0
   -6.0335    1.0349    0.4556 C   0  0  0  0  0  0  0  0  0  0  0  0
   -2.4064   -0.9653    1.2569 C   0  0  0  0  0  0  0  0  0  0  0  0
   -1.1032   -0.5190    1.0180 C   0  0  0  0  0  0  0  0  0  0  0  0
    4.4060   -1.1862   -0.8261 C   0  0  0  0  0  0  0  0  0  0  0  0
    5.6567   -1.8069   -0.8452 C   0  0  0  0  0  0  0  0  0  0  0  0
    6.7494   -1.2071   -0.2156 C   0  0  0  0  0  0  0  0  0  0  0  0
    5.2199    1.6200    0.9154 H   0  0  0  0  0  0  0  0  0  0  0  0
    2.9709    1.7690   -0.1234 H   0  0  0  0  0  0  0  0  0  0  0  0
    0.5932    1.7425   -0.8022 H   0  0  0  0  0  0  0  0  0  0  0  0
   -1.6951    1.3774   -1.7494 H   0  0  0  0  0  0  0  0  0  0  0  0
   -3.9783    0.5744   -1.3431 H   0  0  0  0  0  0  0  0  0  0  0  0
   -7.0518   -2.1954    0.1190 H   0  0  0  0  0  0  0  0  0  0  0  0
   -9.1903   -1.0264   -0.3468 H   0  0  0  0  0  0  0  0  0  0  0  0
   -7.3368    2.7321    0.2140 H   0  0  0  0  0  0  0  0  0  0  0  0
   -5.1742    1.6417    0.7089 H   0  0  0  0  0  0  0  0  0  0  0  0
   -2.6029   -1.6147    2.1006 H   0  0  0  0  0  0  0  0  0  0  0  0
   -0.3187   -0.8108    1.7031 H   0  0  0  0  0  0  0  0  0  0  0  0
    3.5846   -1.6522   -1.3535 H   0  0  0  0  0  0  0  0  0  0  0  0
    5.7830   -2.7493   -1.3625 H   0  0  0  0  0  0  0  0  0  0  0  0
    7.7135   -1.6982   -0.2585 H   0  0  0  0  0  0  0  0  0  0  0  0
  1  2  1  0
  2  3  1  0
  2  4  1  0
  2  5  1  0
  5  6  2  0
  6  7  1  0
  7  8  1  0
  8  9  1  0
  9 10  2  0
  9 11  1  0
 11 12  1  0
 12 13  2  0
 13 14  1  0
 14 15  2  0
 15 16  1  0
 16 17  1  0
 17 18  2  0
 18 19  1  0
 19 20  2  0
 20 21  1  0
 21 22  2  0
 15 23  1  0
 23 24  2  0
  7 25  2  0
 25 26  1  0
 26 27  2  0
 27  5  1  0
 24 12  1  0
 22 17  1  0
  6 28  1  0
  8 29  1  0
 11 30  1  0
 13 31  1  0
 14 32  1  0
 18 33  1  0
 19 34  1  0
 21 35  1  0
 22 36  1  0
 23 37  1  0
 24 38  1  0
 25 39  1  0
 26 40  1  0
 27 41  1  0
M  END
$$$$
