
     RDKit          3D

 46 47  0  0  0  0  0  0  0  0999 V2000
    0.0000    0.0000    0.0000 Br  0  0  0  0  0 15  0  0  0  0  0  0
   -3.1101    2.2897   -1.1200 C   0  0  0  0  0  0  0  0  0  0  0  0
   -2.6939    1.2720   -0.1113 N   0  0  0  0  0  4  0  0  0  0  0  0
   -3.8065    1.2094    0.8827 C   0  0  0  0  0  0  0  0  0  0  0  0
   -1.4029    1.5612    0.5621 C   0  0  0  0  0  0  0  0  0  0  0  0
   -1.0223    0.2535    1.2919 C   0  0  0  0  0  0  0  0  0  0  0  0
   -1.6981   -0.8451    0.4626 C   0  0  0  0  0  0  0  0  0  0  0  0
   -2.4127   -0.0740   -0.6705 C   0  0  0  0  0  0  0  0  0  0  0  0
   -1.4459    0.0122   -1.8887 C   0  0  0  0  0  0  0  0  0  0  0  0
   -0.1301    0.7915   -1.5725 C   0  0  0  0  0  0  0  0  0  0  0  0
   -0.2868    1.8864   -0.4751 C   0  0  0  0  0  0  0  0  0  0  0  0
    0.8876   -0.1226   -1.1604 O   0  0  0  0  0  0  0  0  0  0  0  0
    1.5752   -0.9727   -2.0358 C   0  0  0  0  0  0  0  0  0  0  0  0
    1.3593   -0.9244   -3.2775 O   0  0  0  0  0  0  0  0  0  0  0  0
    2.5466   -1.9898   -1.4936 C   0  0  0  0  0  0  0  0  0  0  0  0
    1.9793   -3.2777   -1.4712 O   0  0  0  0  0  0  0  0  0  0  0  0
    3.0615   -1.5943   -0.1236 C   0  0  0  0  0  0  0  0  0  0  0  0
    4.2848   -0.9092   -0.0083 C   0  0  0  0  0  0  0  0  0  0  0  0
    4.7486   -0.4924    1.2432 C   0  0  0  0  0  0  0  0  0  0  0  0
    3.9919   -0.7431    2.3900 C   0  0  0  0  0  0  0  0  0  0  0  0
    2.7684   -1.4084    2.2874 C   0  0  0  0  0  0  0  0  0  0  0  0
    2.3012   -1.8297    1.0390 C   0  0  0  0  0  0  0  0  0  0  0  0
   -4.0613    1.9862   -1.6112 H   0  0  0  0  0  0  0  0  0  0  0  0
   -3.2648    3.2793   -0.6352 H   0  0  0  0  0  0  0  0  0  0  0  0
   -2.3807    2.4544   -1.9333 H   0  0  0  0  0  0  0  0  0  0  0  0
   -3.6309    0.4812    1.6994 H   0  0  0  0  0  0  0  0  0  0  0  0
   -3.9613    2.1998    1.3668 H   0  0  0  0  0  0  0  0  0  0  0  0
   -4.7602    0.9122    0.3915 H   0  0  0  0  0  0  0  0  0  0  0  0
   -1.4935    2.4056    1.2828 H   0  0  0  0  0  0  0  0  0  0  0  0
    0.0759    0.0983    1.3611 H   0  0  0  0  0  0  0  0  0  0  0  0
   -1.4237    0.2587    2.3283 H   0  0  0  0  0  0  0  0  0  0  0  0
   -0.9596   -1.5860    0.0864 H   0  0  0  0  0  0  0  0  0  0  0  0
   -2.4387   -1.3966    1.0811 H   0  0  0  0  0  0  0  0  0  0  0  0
   -3.3471   -0.5964   -0.9780 H   0  0  0  0  0  0  0  0  0  0  0  0
   -1.9643    0.4720   -2.7555 H   0  0  0  0  0  0  0  0  0  0  0  0
   -1.2048   -1.0176   -2.2307 H   0  0  0  0  0  0  0  0  0  0  0  0
    0.2127    1.3004   -2.5011 H   0  0  0  0  0  0  0  0  0  0  0  0
    0.6809    2.0179    0.0579 H   0  0  0  0  0  0  0  0  0  0  0  0
   -0.4779    2.8751   -0.9417 H   0  0  0  0  0  0  0  0  0  0  0  0
    3.4078   -2.0319   -2.1960 H   0  0  0  0  0  0  0  0  0  0  0  0
    1.0554   -3.2089   -1.1134 H   0  0  0  0  0  0  0  0  0  0  0  0
    4.8785   -0.6927   -0.8878 H   0  0  0  0  0  0  0  0  0  0  0  0
    5.6927    0.0307    1.3229 H   0  0  0  0  0  0  0  0  0  0  0  0
    4.3507   -0.4163    3.3574 H   0  0  0  0  0  0  0  0  0  0  0  0
    2.1774   -1.5923    3.1753 H   0  0  0  0  0  0  0  0  0  0  0  0
    1.3419   -2.3258    0.9850 H   0  0  0  0  0  0  0  0  0  0  0  0
  2  3  1  0
  3  4  1  0
  3  5  1  0
  5  6  1  0
  6  7  1  0
  7  8  1  0
  8  9  1  0
  9 10  1  0
 10 11  1  0
 10 12  1  0
 12 13  1  0
 13 14  2  0
 13 15  1  0
 15 16  1  0
 15 17  1  0
 17 18  2  0
 18 19  1  0
 19 20  2  0
 20 21  1  0
 21 22  2  0
  8  3  1  0
 22 17  1  0
 11  5  1  0
  2 23  1  0
  2 24  1  0
  2 25  1  0
  4 26  1  0
  4 27  1  0
  4 28  1  0
  5 29  1  0
  6 30  1  0
  6 31  1  0
  7 32  1  0
  7 33  1  0
  8 34  1  0
  9 35  1  0
  9 36  1  0
 10 37  1  0
 11 38  1  0
 11 39  1  0
 15 40  1  0
 16 41  1  0
 18 42  1  0
 19 43  1  0
 20 44  1  0
 21 45  1  0
 22 46  1  0
M  CHG  2   1  -1   3   1
M  END
$$$$
