
     RDKit          3D

 39 41  0  0  0  0  0  0  0  0999 V2000
    4.8815    0.0858   -0.3499 N   0  0  0  0  0  0  0  0  0  0  0  0
    6.1657   -0.5453   -0.0734 C   0  0  0  0  0  0  0  0  0  0  0  0
    3.6518   -0.4632    0.1421 C   0  0  0  0  0  0  0  0  0  0  0  0
    3.6482   -1.5994    0.6890 O   0  0  0  0  0  0  0  0  0  0  0  0
    2.3776    0.2708   -0.0077 C   0  0  0  0  0  0  0  0  0  0  0  0
    2.1729    1.6458    0.0603 C   0  0  0  0  0  0  0  0  0  0  0  0
    3.2052    2.6989    0.3195 C   0  0  0  0  0  0  0  0  0  0  0  0
    0.8716    1.9313   -0.1401 N   0  0  0  0  0  0  0  0  0  0  0  0
    0.2263    0.7608   -0.2933 C   0  0  0  0  0  0  0  0  0  0  0  0
   -1.2150    0.6748   -0.5776 C   0  0  0  0  0  0  0  0  0  0  0  0
   -2.0780   -0.0080    0.1869 C   0  0  0  0  0  0  0  0  0  0  0  0
   -1.8479   -0.6996    1.4656 C   0  0  0  0  0  0  0  0  0  0  0  0
   -0.7612   -0.7381    2.1002 O   0  0  0  0  0  0  0  0  0  0  0  0
   -3.0563   -1.2739    1.9554 N   0  0  0  0  0  0  0  0  0  0  0  0
   -4.0426   -0.9165    0.9943 C   0  0  0  0  0  0  0  0  0  0  0  0
   -3.5145   -0.1752   -0.0469 C   0  0  0  0  0  0  0  0  0  0  0  0
   -4.3198    0.2757   -1.0956 C   0  0  0  0  0  0  0  0  0  0  0  0
   -5.6901   -0.0392   -1.0667 C   0  0  0  0  0  0  0  0  0  0  0  0
   -6.7378    0.5073   -2.3627 Cl  0  0  0  0  0  0  0  0  0  0  0  0
   -6.2260   -0.7928   -0.0008 C   0  0  0  0  0  0  0  0  0  0  0  0
   -5.3978   -1.2381    1.0429 C   0  0  0  0  0  0  0  0  0  0  0  0
    1.1287   -0.2938   -0.2357 C   0  0  0  0  0  0  0  0  0  0  0  0
    0.8369   -1.7490   -0.4586 C   0  0  0  0  0  0  0  0  0  0  0  0
    4.8652    0.9302   -0.9632 H   0  0  0  0  0  0  0  0  0  0  0  0
    6.3441   -0.5691    1.0223 H   0  0  0  0  0  0  0  0  0  0  0  0
    6.1719   -1.5809   -0.4741 H   0  0  0  0  0  0  0  0  0  0  0  0
    6.9818    0.0313   -0.5578 H   0  0  0  0  0  0  0  0  0  0  0  0
    2.7282    3.5919    0.7751 H   0  0  0  0  0  0  0  0  0  0  0  0
    3.6812    2.9988   -0.6367 H   0  0  0  0  0  0  0  0  0  0  0  0
    3.9763    2.3216    1.0232 H   0  0  0  0  0  0  0  0  0  0  0  0
    0.4397    2.8825   -0.1548 H   0  0  0  0  0  0  0  0  0  0  0  0
   -1.5864    1.2305   -1.4282 H   0  0  0  0  0  0  0  0  0  0  0  0
   -3.1959   -1.7974    2.8479 H   0  0  0  0  0  0  0  0  0  0  0  0
   -3.9036    0.8516   -1.9115 H   0  0  0  0  0  0  0  0  0  0  0  0
   -7.2815   -1.0320    0.0167 H   0  0  0  0  0  0  0  0  0  0  0  0
   -5.8024   -1.8163    1.8633 H   0  0  0  0  0  0  0  0  0  0  0  0
    0.9103   -2.2962    0.5038 H   0  0  0  0  0  0  0  0  0  0  0  0
   -0.1791   -1.8927   -0.8801 H   0  0  0  0  0  0  0  0  0  0  0  0
    1.5708   -2.1729   -1.1755 H   0  0  0  0  0  0  0  0  0  0  0  0
  1  2  1  0
  1  3  1  0
  3  4  2  0
  3  5  1  0
  5  6  2  0
  6  7  1  0
  6  8  1  0
  8  9  1  0
  9 10  1  0
 10 11  2  0
 11 12  1  0
 12 13  2  0
 12 14  1  0
 14 15  1  0
 15 16  2  0
 16 17  1  0
 17 18  2  0
 18 19  1  0
 18 20  1  0
 20 21  2  0
  9 22  2  0
 22 23  1  0
 22  5  1  0
 16 11  1  0
 21 15  1  0
  1 24  1  0
  2 25  1  0
  2 26  1  0
  2 27  1  0
  7 28  1  0
  7 29  1  0
  7 30  1  0
  8 31  1  0
 10 32  1  0
 14 33  1  0
 17 34  1  0
 20 35  1  0
 21 36  1  0
 23 37  1  0
 23 38  1  0
 23 39  1  0
M  END
$$$$
