
     RDKit          3D

 49 49  0  0  0  0  0  0  0  0999 V2000
    6.2743    0.1794    2.3159 C   0  0  0  0  0  0  0  0  0  0  0  0
    6.0641    1.0242    1.1891 O   0  0  0  0  0  0  0  0  0  0  0  0
    5.3435    0.6568    0.0413 C   0  0  0  0  0  0  0  0  0  0  0  0
    5.2027    1.5925   -1.0004 C   0  0  0  0  0  0  0  0  0  0  0  0
    5.7676    2.8644   -0.9077 O   0  0  0  0  0  0  0  0  0  0  0  0
    4.4852    1.2555   -2.1524 C   0  0  0  0  0  0  0  0  0  0  0  0
    3.9055   -0.0075   -2.2797 C   0  0  0  0  0  0  0  0  0  0  0  0
    4.0426   -0.9544   -1.2557 C   0  0  0  0  0  0  0  0  0  0  0  0
    3.3851   -2.3016   -1.3876 C   0  0  0  0  0  0  0  0  0  0  0  0
    1.9375   -2.1695   -1.2456 N   0  0  0  0  0  0  0  0  0  0  0  0
    1.3098   -1.8969    0.0150 C   0  0  0  0  0  0  0  0  0  0  0  0
    1.9928   -1.8675    1.0745 O   0  0  0  0  0  0  0  0  0  0  0  0
   -0.1558   -1.5909    0.0728 C   0  0  0  0  0  0  0  0  0  0  0  0
   -0.4014   -0.1118   -0.2528 C   0  0  0  0  0  0  0  0  0  0  0  0
   -1.8959    0.2337   -0.3383 C   0  0  0  0  0  0  0  0  0  0  0  0
   -2.5857    0.2149    1.0342 C   0  0  0  0  0  0  0  0  0  0  0  0
   -3.9996    0.7173    0.9349 C   0  0  0  0  0  0  0  0  0  0  0  0
   -4.9601   -0.0032    0.3309 C   0  0  0  0  0  0  0  0  0  0  0  0
   -6.3916    0.4711    0.2203 C   0  0  0  0  0  0  0  0  0  0  0  0
   -7.0345    0.6363    1.6022 C   0  0  0  0  0  0  0  0  0  0  0  0
   -6.4890    1.7651   -0.5960 C   0  0  0  0  0  0  0  0  0  0  0  0
    4.7572   -0.6178   -0.0951 C   0  0  0  0  0  0  0  0  0  0  0  0
    6.8726    0.7270    3.0725 H   0  0  0  0  0  0  0  0  0  0  0  0
    5.3003   -0.1022    2.7690 H   0  0  0  0  0  0  0  0  0  0  0  0
    6.8332   -0.7308    2.0120 H   0  0  0  0  0  0  0  0  0  0  0  0
    6.2967    3.1625   -0.0971 H   0  0  0  0  0  0  0  0  0  0  0  0
    4.3742    1.9781   -2.9510 H   0  0  0  0  0  0  0  0  0  0  0  0
    3.3460   -0.2477   -3.1755 H   0  0  0  0  0  0  0  0  0  0  0  0
    3.7737   -3.0227   -0.6358 H   0  0  0  0  0  0  0  0  0  0  0  0
    3.6189   -2.7204   -2.3906 H   0  0  0  0  0  0  0  0  0  0  0  0
    1.3447   -2.2398   -2.1034 H   0  0  0  0  0  0  0  0  0  0  0  0
   -0.5355   -1.8289    1.0890 H   0  0  0  0  0  0  0  0  0  0  0  0
   -0.6927   -2.2355   -0.6563 H   0  0  0  0  0  0  0  0  0  0  0  0
    0.0608    0.1208   -1.2379 H   0  0  0  0  0  0  0  0  0  0  0  0
    0.0922    0.5309    0.5093 H   0  0  0  0  0  0  0  0  0  0  0  0
   -2.4033   -0.4717   -1.0322 H   0  0  0  0  0  0  0  0  0  0  0  0
   -1.9885    1.2548   -0.7701 H   0  0  0  0  0  0  0  0  0  0  0  0
   -2.5952   -0.8128    1.4551 H   0  0  0  0  0  0  0  0  0  0  0  0
   -2.0272    0.8715    1.7358 H   0  0  0  0  0  0  0  0  0  0  0  0
   -4.2388    1.6749    1.3876 H   0  0  0  0  0  0  0  0  0  0  0  0
   -4.7094   -0.9687   -0.1006 H   0  0  0  0  0  0  0  0  0  0  0  0
   -6.9639   -0.3122   -0.3239 H   0  0  0  0  0  0  0  0  0  0  0  0
   -6.5418    1.4486    2.1778 H   0  0  0  0  0  0  0  0  0  0  0  0
   -8.1117    0.8844    1.4924 H   0  0  0  0  0  0  0  0  0  0  0  0
   -6.9535   -0.3115    2.1763 H   0  0  0  0  0  0  0  0  0  0  0  0
   -5.9809    2.6048   -0.0756 H   0  0  0  0  0  0  0  0  0  0  0  0
   -7.5549    2.0376   -0.7499 H   0  0  0  0  0  0  0  0  0  0  0  0
   -6.0194    1.6233   -1.5929 H   0  0  0  0  0  0  0  0  0  0  0  0
    4.8489   -1.3496    0.6961 H   0  0  0  0  0  0  0  0  0  0  0  0
  1  2  1  0
  2  3  1  0
  3  4  2  0
  4  5  1  0
  4  6  1  0
  6  7  2  0
  7  8  1  0
  8  9  1  0
  9 10  1  0
 10 11  1  0
 11 12  2  0
 11 13  1  0
 13 14  1  0
 14 15  1  0
 15 16  1  0
 16 17  1  0
 17 18  2  0
 18 19  1  0
 19 20  1  0
 19 21  1  0
  8 22  2  0
 22  3  1  0
  1 23  1  0
  1 24  1  0
  1 25  1  0
  5 26  1  0
  6 27  1  0
  7 28  1  0
  9 29  1  0
  9 30  1  0
 10 31  1  0
 13 32  1  0
 13 33  1  0
 14 34  1  0
 14 35  1  0
 15 36  1  0
 15 37  1  0
 16 38  1  0
 16 39  1  0
 17 40  1  0
 18 41  1  0
 19 42  1  0
 20 43  1  0
 20 44  1  0
 20 45  1  0
 21 46  1  0
 21 47  1  0
 21 48  1  0
 22 49  1  0
M  END
$$$$
