
     RDKit          3D

 57 58  0  0  0  0  0  0  0  0999 V2000
    1.2555    0.0784    2.8894 C   0  0  2  0  0  0  0  0  0  0  0  0
    1.2297    0.8484    4.2121 C   0  0  0  0  0  0  0  0  0  0  0  0
    2.5090    0.3269    2.1710 N   0  0  0  0  0  0  0  0  0  0  0  0
    2.9001   -0.4470    1.0310 C   0  0  0  0  0  0  0  0  0  0  0  0
    2.1837   -1.4089    0.6380 O   0  0  0  0  0  0  0  0  0  0  0  0
    4.0812   -0.1236    0.3582 O   0  0  0  0  0  0  0  0  0  0  0  0
    4.5297   -0.8351   -0.7902 C   0  0  0  0  0  0  0  0  0  0  0  0
    5.8137   -0.2303   -1.2767 C   0  0  0  0  0  0  0  0  0  0  0  0
    5.7921    0.8378   -2.1888 C   0  0  0  0  0  0  0  0  0  0  0  0
    6.9882    1.4254   -2.6130 C   0  0  0  0  0  0  0  0  0  0  0  0
    8.2107    0.9595   -2.1210 C   0  0  0  0  0  0  0  0  0  0  0  0
    8.2388   -0.0916   -1.2001 C   0  0  0  0  0  0  0  0  0  0  0  0
    7.0449   -0.6818   -0.7733 C   0  0  0  0  0  0  0  0  0  0  0  0
    0.0857    0.4832    2.0339 C   0  0  0  0  0  0  0  0  0  0  0  0
    0.0624    1.6328    1.5144 O   0  0  0  0  0  0  0  0  0  0  0  0
   -1.0020   -0.4275    1.8206 N   0  0  0  0  0  0  0  0  0  0  0  0
   -2.0806   -0.1522    0.8767 C   0  0  0  0  0  0  0  0  0  0  0  0
   -1.5328   -0.4996   -0.8276 P   0  0  2  0  0  5  0  0  0  0  0  0
   -1.1350   -2.1390   -0.9830 O   0  0  0  0  0  0  0  0  0  0  0  0
   -0.3144    0.3363   -1.1473 O   0  0  0  0  0  0  0  0  0  0  0  0
   -2.7778   -0.0881   -1.9210 O   0  0  0  0  0  0  0  0  0  0  0  0
   -3.8040   -1.0633   -1.8860 C   0  0  1  0  0  0  0  0  0  0  0  0
   -5.1660   -0.3554   -1.9040 C   0  0  0  0  0  0  0  0  0  0  0  0
   -5.3510    0.4750   -0.6600 C   0  0  0  0  0  0  0  0  0  0  0  0
   -4.9678    1.8269   -0.6448 C   0  0  0  0  0  0  0  0  0  0  0  0
   -5.0818    2.5780    0.5290 C   0  0  0  0  0  0  0  0  0  0  0  0
   -5.5708    1.9844    1.6958 C   0  0  0  0  0  0  0  0  0  0  0  0
   -5.9460    0.6382    1.6911 C   0  0  0  0  0  0  0  0  0  0  0  0
   -5.8343   -0.1164    0.5193 C   0  0  0  0  0  0  0  0  0  0  0  0
   -3.6815   -1.9540   -3.0878 C   0  0  0  0  0  0  0  0  0  0  0  0
   -3.8482   -3.3285   -2.9501 O   0  0  0  0  0  0  0  0  0  0  0  0
   -3.4561   -1.4594   -4.2253 O   0  0  0  0  0  0  0  0  0  0  0  0
    1.1910   -1.0057    3.1301 H   0  0  0  0  0  0  0  0  0  0  0  0
    1.3035    1.9427    4.0320 H   0  0  0  0  0  0  0  0  0  0  0  0
    0.2867    0.6354    4.7600 H   0  0  0  0  0  0  0  0  0  0  0  0
    2.0836    0.5326    4.8485 H   0  0  0  0  0  0  0  0  0  0  0  0
    3.1436    1.0985    2.4793 H   0  0  0  0  0  0  0  0  0  0  0  0
    3.7569   -0.7838   -1.5886 H   0  0  0  0  0  0  0  0  0  0  0  0
    4.6845   -1.9056   -0.5312 H   0  0  0  0  0  0  0  0  0  0  0  0
    4.8510    1.2147   -2.5701 H   0  0  0  0  0  0  0  0  0  0  0  0
    6.9672    2.2444   -3.3202 H   0  0  0  0  0  0  0  0  0  0  0  0
    9.1354    1.4162   -2.4491 H   0  0  0  0  0  0  0  0  0  0  0  0
    9.1856   -0.4464   -0.8138 H   0  0  0  0  0  0  0  0  0  0  0  0
    7.0799   -1.4889   -0.0519 H   0  0  0  0  0  0  0  0  0  0  0  0
   -1.0375   -1.3173    2.3671 H   0  0  0  0  0  0  0  0  0  0  0  0
   -2.4099    0.9048    0.9622 H   0  0  0  0  0  0  0  0  0  0  0  0
   -2.9475   -0.8034    1.1125 H   0  0  0  0  0  0  0  0  0  0  0  0
   -0.4112   -2.2897   -0.3243 H   0  0  0  0  0  0  0  0  0  0  0  0
   -3.7890   -1.7091   -0.9755 H   0  0  0  0  0  0  0  0  0  0  0  0
   -5.2470    0.2902   -2.8069 H   0  0  0  0  0  0  0  0  0  0  0  0
   -5.9813   -1.1102   -1.9672 H   0  0  0  0  0  0  0  0  0  0  0  0
   -4.5720    2.2949   -1.5375 H   0  0  0  0  0  0  0  0  0  0  0  0
   -4.7844    3.6186    0.5359 H   0  0  0  0  0  0  0  0  0  0  0  0
   -5.6547    2.5661    2.6046 H   0  0  0  0  0  0  0  0  0  0  0  0
   -6.3176    0.1776    2.5972 H   0  0  0  0  0  0  0  0  0  0  0  0
   -6.1131   -1.1628    0.5328 H   0  0  0  0  0  0  0  0  0  0  0  0
   -3.7789   -3.9431   -3.7524 H   0  0  0  0  0  0  0  0  0  0  0  0
  1  2  1  0
  1  3  1  0
  3  4  1  0
  4  5  2  0
  4  6  1  0
  6  7  1  0
  7  8  1  0
  8  9  2  0
  9 10  1  0
 10 11  2  0
 11 12  1  0
 12 13  2  0
  1 14  1  0
 14 15  2  0
 14 16  1  0
 16 17  1  0
 17 18  1  0
 18 19  1  1
 18 20  2  0
 18 21  1  0
 21 22  1  0
 22 23  1  0
 23 24  1  0
 24 25  2  0
 25 26  1  0
 26 27  2  0
 27 28  1  0
 28 29  2  0
 22 30  1  0
 30 31  1  0
 30 32  2  0
 13  8  1  0
 29 24  1  0
  1 33  1  1
  2 34  1  0
  2 35  1  0
  2 36  1  0
  3 37  1  0
  7 38  1  0
  7 39  1  0
  9 40  1  0
 10 41  1  0
 11 42  1  0
 12 43  1  0
 13 44  1  0
 16 45  1  0
 17 46  1  0
 17 47  1  0
 19 48  1  0
 22 49  1  1
 23 50  1  0
 23 51  1  0
 25 52  1  0
 26 53  1  0
 27 54  1  0
 28 55  1  0
 29 56  1  0
 31 57  1  0
M  END
$$$$
