
     RDKit          3D

 44 47  0  0  0  0  0  0  0  0999 V2000
    8.1569   -0.9442    0.9283 N   0  0  0  0  0  0  0  0  0  0  0  0
    7.6595    0.4122   -0.0225 S   0  0  0  0  0  6  0  0  0  0  0  0
    8.4463    1.6198    0.4056 O   0  0  0  0  0  0  0  0  0  0  0  0
    7.9259    0.1324   -1.4745 O   0  0  0  0  0  0  0  0  0  0  0  0
    5.9392    0.7045    0.2099 C   0  0  0  0  0  0  0  0  0  0  0  0
    5.4325    2.0103    0.1810 C   0  0  0  0  0  0  0  0  0  0  0  0
    4.0649    2.2382    0.3593 C   0  0  0  0  0  0  0  0  0  0  0  0
    3.1831    1.1638    0.5489 C   0  0  0  0  0  0  0  0  0  0  0  0
    1.7845    1.4271    0.7502 N   0  0  0  0  0  0  0  0  0  0  0  0
    0.7340    0.5617    0.2982 C   0  0  0  0  0  0  0  0  0  0  0  0
   -0.6047    0.7219    0.6106 C   0  0  0  0  0  0  0  0  0  0  0  0
   -1.2653   -0.2437   -0.0422 N   0  0  0  0  0  0  0  0  0  0  0  0
   -2.5921   -0.5234   -0.0682 C   0  0  0  0  0  0  0  0  0  0  0  0
   -3.0354   -1.6080   -0.8568 C   0  0  0  0  0  0  0  0  0  0  0  0
   -2.0716   -2.3588   -1.5750 C   0  0  0  0  0  0  0  0  0  0  0  0
   -0.7094   -2.0254   -1.5144 C   0  0  0  0  0  0  0  0  0  0  0  0
   -0.3424   -0.9422   -0.7233 C   0  0  0  0  0  0  0  0  0  0  0  0
    0.9128   -0.4789   -0.5525 N   0  0  0  0  0  0  0  0  0  0  0  0
   -4.4735   -1.9703   -0.9272 C   0  0  0  0  0  0  0  0  0  0  0  0
   -4.8142   -3.0876   -1.4022 O   0  0  0  0  0  0  0  0  0  0  0  0
   -5.5312   -1.0576   -0.4425 C   0  0  0  0  0  0  0  0  0  0  0  0
   -5.7560    0.1834   -1.0787 C   0  0  0  0  0  0  0  0  0  0  0  0
   -4.8276    0.6821   -2.4901 Cl  0  0  0  0  0  0  0  0  0  0  0  0
   -6.7587    1.0385   -0.6081 C   0  0  0  0  0  0  0  0  0  0  0  0
   -7.5436    0.6698    0.4850 C   0  0  0  0  0  0  0  0  0  0  0  0
   -7.3347   -0.5580    1.1140 C   0  0  0  0  0  0  0  0  0  0  0  0
   -6.3364   -1.4254    0.6567 C   0  0  0  0  0  0  0  0  0  0  0  0
   -6.0966   -2.9491    1.5066 Cl  0  0  0  0  0  0  0  0  0  0  0  0
    3.6980   -0.1442    0.5936 C   0  0  0  0  0  0  0  0  0  0  0  0
    5.0661   -0.3710    0.4160 C   0  0  0  0  0  0  0  0  0  0  0  0
    9.1896   -1.0421    0.8053 H   0  0  0  0  0  0  0  0  0  0  0  0
    7.9946   -0.6918    1.9290 H   0  0  0  0  0  0  0  0  0  0  0  0
    6.0937    2.8522    0.0203 H   0  0  0  0  0  0  0  0  0  0  0  0
    3.6886    3.2534    0.3377 H   0  0  0  0  0  0  0  0  0  0  0  0
    1.5091    2.3442    1.1695 H   0  0  0  0  0  0  0  0  0  0  0  0
   -1.0521    1.4745    1.2475 H   0  0  0  0  0  0  0  0  0  0  0  0
   -3.2829    0.0755    0.5124 H   0  0  0  0  0  0  0  0  0  0  0  0
   -2.3740   -3.1977   -2.1891 H   0  0  0  0  0  0  0  0  0  0  0  0
    0.0292   -2.5928   -2.0659 H   0  0  0  0  0  0  0  0  0  0  0  0
   -6.9349    1.9896   -1.0943 H   0  0  0  0  0  0  0  0  0  0  0  0
   -8.3177    1.3360    0.8436 H   0  0  0  0  0  0  0  0  0  0  0  0
   -7.9487   -0.8341    1.9619 H   0  0  0  0  0  0  0  0  0  0  0  0
    3.0512   -0.9884    0.7903 H   0  0  0  0  0  0  0  0  0  0  0  0
    5.4441   -1.3849    0.4462 H   0  0  0  0  0  0  0  0  0  0  0  0
  1  2  1  0
  2  3  2  0
  2  4  2  0
  2  5  1  0
  5  6  2  0
  6  7  1  0
  7  8  2  0
  8  9  1  0
  9 10  1  0
 10 11  2  0
 11 12  1  0
 12 13  1  0
 13 14  2  0
 14 15  1  0
 15 16  2  0
 16 17  1  0
 17 18  2  0
 14 19  1  0
 19 20  2  0
 19 21  1  0
 21 22  2  0
 22 23  1  0
 22 24  1  0
 24 25  2  0
 25 26  1  0
 26 27  2  0
 27 28  1  0
  8 29  1  0
 29 30  2  0
 30  5  1  0
 18 10  1  0
 27 21  1  0
 17 12  1  0
  1 31  1  0
  1 32  1  0
  6 33  1  0
  7 34  1  0
  9 35  1  0
 11 36  1  0
 13 37  1  0
 15 38  1  0
 16 39  1  0
 24 40  1  0
 25 41  1  0
 26 42  1  0
 29 43  1  0
 30 44  1  0
M  END
$$$$
