
     RDKit          3D

 24 24  0  0  0  0  0  0  0  0999 V2000
    4.0124   -0.5590   -0.7777 N   0  0  0  0  0  0  0  0  0  0  0  0
    3.3417    0.4006    0.0431 C   0  0  0  0  0  0  0  0  0  0  0  0
    3.9335    1.5193    0.3167 N   0  0  0  0  0  0  0  0  0  0  0  0
    2.0564    0.1129    0.6185 N   0  0  0  0  0  0  0  0  0  0  0  0
    1.0741   -0.7293   -0.0044 C   0  0  0  0  0  0  0  0  0  0  0  0
    1.2258   -1.1169   -1.1946 O   0  0  0  0  0  0  0  0  0  0  0  0
   -0.1709   -1.1174    0.7393 C   0  0  0  0  0  0  0  0  0  0  0  0
   -1.3828   -0.4233    0.1525 C   0  0  0  0  0  0  0  0  0  0  0  0
   -2.1220   -1.0254   -0.8959 C   0  0  0  0  0  0  0  0  0  0  0  0
   -1.7021   -2.6043   -1.5561 Cl  0  0  0  0  0  0  0  0  0  0  0  0
   -3.2249   -0.3642   -1.4476 C   0  0  0  0  0  0  0  0  0  0  0  0
   -3.6009    0.8935   -0.9800 C   0  0  0  0  0  0  0  0  0  0  0  0
   -2.8750    1.5044    0.0408 C   0  0  0  0  0  0  0  0  0  0  0  0
   -1.7688    0.8616    0.6071 C   0  0  0  0  0  0  0  0  0  0  0  0
   -0.8976    1.7077    1.8828 Cl  0  0  0  0  0  0  0  0  0  0  0  0
    4.9222   -0.3185   -1.2307 H   0  0  0  0  0  0  0  0  0  0  0  0
    3.6636   -1.5387   -0.8606 H   0  0  0  0  0  0  0  0  0  0  0  0
    3.4891    2.2393    0.9292 H   0  0  0  0  0  0  0  0  0  0  0  0
    1.7986    0.5994    1.5062 H   0  0  0  0  0  0  0  0  0  0  0  0
   -0.2870   -2.2203    0.7018 H   0  0  0  0  0  0  0  0  0  0  0  0
   -0.0659   -0.8787    1.8182 H   0  0  0  0  0  0  0  0  0  0  0  0
   -3.7922   -0.8257   -2.2460 H   0  0  0  0  0  0  0  0  0  0  0  0
   -4.4546    1.3985   -1.4132 H   0  0  0  0  0  0  0  0  0  0  0  0
   -3.1728    2.4847    0.3913 H   0  0  0  0  0  0  0  0  0  0  0  0
  1  2  1  0
  2  3  2  3
  2  4  1  0
  4  5  1  0
  5  6  2  0
  5  7  1  0
  7  8  1  0
  8  9  2  0
  9 10  1  0
  9 11  1  0
 11 12  2  0
 12 13  1  0
 13 14  2  0
 14 15  1  0
 14  8  1  0
  1 16  1  0
  1 17  1  0
  3 18  1  0
  4 19  1  0
  7 20  1  0
  7 21  1  0
 11 22  1  0
 12 23  1  0
 13 24  1  0
M  END
$$$$
