
     RDKit          3D

 45 49  0  0  0  0  0  0  0  0999 V2000
   -0.7951    0.9896   -0.9705 C   0  0  2  0  0  0  0  0  0  0  0  0
   -2.0320    1.2633   -0.0307 C   0  0  0  0  0  0  0  0  0  0  0  0
   -3.0152    0.1208   -0.0214 C   0  0  0  0  0  0  0  0  0  0  0  0
   -2.5180   -1.1473   -0.1974 C   0  0  0  0  0  0  0  0  0  0  0  0
   -3.2569   -2.2794   -0.1021 C   0  0  0  0  0  0  0  0  0  0  0  0
   -2.4856   -3.3555   -0.3544 N   0  0  0  0  0  0  0  0  0  0  0  0
   -1.2427   -2.8678   -0.6192 C   0  0  0  0  0  0  0  0  0  0  0  0
   -1.2501   -1.4787   -0.5229 C   0  0  0  0  0  0  0  0  0  0  0  0
   -0.1977   -0.4462   -0.8017 C   0  0  2  0  0  0  0  0  0  0  0  0
    0.7950   -0.2708    0.3420 C   0  0  2  0  0  0  0  0  0  0  0  0
    1.2813    1.0948    0.2101 N   0  0  0  0  0  0  0  0  0  0  0  0
    2.7172    1.0528    0.2098 C   0  0  0  0  0  0  0  0  0  0  0  0
    3.5204    2.1907    0.2274 O   0  0  0  0  0  0  0  0  0  0  0  0
    3.1943   -0.1880    0.1997 C   0  0  0  0  0  0  0  0  0  0  0  0
    4.6241   -0.5749    0.1786 C   0  0  0  0  0  0  0  0  0  0  0  0
    5.0383   -2.0130    0.1869 C   0  0  0  0  0  0  0  0  0  0  0  0
    5.5170    0.3146    0.1499 O   0  0  0  0  0  0  0  0  0  0  0  0
    2.0401   -1.0816    0.2281 C   0  0  0  0  0  0  0  0  0  0  0  0
    2.0806   -2.3400    0.2089 O   0  0  0  0  0  0  0  0  0  0  0  0
    0.4403    1.9097   -0.6819 C   0  0  0  0  0  0  0  0  0  0  0  0
    0.0921    3.2531   -0.0053 C   0  0  0  0  0  0  0  0  0  0  0  0
    1.1668    2.2010   -2.0191 C   0  0  0  0  0  0  0  0  0  0  0  0
   -4.6169   -2.2187    0.2036 C   0  0  0  0  0  0  0  0  0  0  0  0
   -5.1809   -0.9378    0.4157 C   0  0  0  0  0  0  0  0  0  0  0  0
   -4.3801    0.2317    0.3159 C   0  0  0  0  0  0  0  0  0  0  0  0
   -1.1537    1.1070   -2.0184 H   0  0  0  0  0  0  0  0  0  0  0  0
   -2.5489    2.1916   -0.3551 H   0  0  0  0  0  0  0  0  0  0  0  0
   -1.6925    1.3910    1.0183 H   0  0  0  0  0  0  0  0  0  0  0  0
   -2.7818   -4.3567   -0.3637 H   0  0  0  0  0  0  0  0  0  0  0  0
   -0.3932   -3.4808   -0.8895 H   0  0  0  0  0  0  0  0  0  0  0  0
    0.3358   -0.7272   -1.7378 H   0  0  0  0  0  0  0  0  0  0  0  0
    0.3245   -0.4073    1.3411 H   0  0  0  0  0  0  0  0  0  0  0  0
    3.1214    3.1165    0.3006 H   0  0  0  0  0  0  0  0  0  0  0  0
    4.6520   -2.5104    1.1009 H   0  0  0  0  0  0  0  0  0  0  0  0
    6.1458   -2.0997    0.1801 H   0  0  0  0  0  0  0  0  0  0  0  0
    4.6392   -2.5241   -0.7140 H   0  0  0  0  0  0  0  0  0  0  0  0
    0.9759    3.9223    0.0271 H   0  0  0  0  0  0  0  0  0  0  0  0
   -0.7056    3.7777   -0.5730 H   0  0  0  0  0  0  0  0  0  0  0  0
   -0.2371    3.1052    1.0436 H   0  0  0  0  0  0  0  0  0  0  0  0
    1.5107    1.2591   -2.4967 H   0  0  0  0  0  0  0  0  0  0  0  0
    0.4840    2.7233   -2.7232 H   0  0  0  0  0  0  0  0  0  0  0  0
    2.0516    2.8527   -1.8676 H   0  0  0  0  0  0  0  0  0  0  0  0
   -5.2172   -3.1159    0.2788 H   0  0  0  0  0  0  0  0  0  0  0  0
   -6.2298   -0.8494    0.6667 H   0  0  0  0  0  0  0  0  0  0  0  0
   -4.8174    1.2030    0.5079 H   0  0  0  0  0  0  0  0  0  0  0  0
  1  2  1  0
  2  3  1  0
  3  4  2  0
  4  5  1  0
  5  6  1  0
  6  7  1  0
  7  8  2  0
  8  9  1  0
  9 10  1  0
 10 11  1  0
 11 12  1  0
 12 13  1  0
 12 14  2  0
 14 15  1  0
 15 16  1  0
 15 17  2  0
 14 18  1  0
 18 19  2  0
 11 20  1  0
 20 21  1  0
 20 22  1  0
  5 23  2  0
 23 24  1  0
 24 25  2  0
  9  1  1  0
 18 10  1  0
 20  1  1  0
 25  3  1  0
  8  4  1  0
  1 26  1  6
  2 27  1  0
  2 28  1  0
  6 29  1  0
  7 30  1  0
  9 31  1  6
 10 32  1  1
 13 33  1  0
 16 34  1  0
 16 35  1  0
 16 36  1  0
 21 37  1  0
 21 38  1  0
 21 39  1  0
 22 40  1  0
 22 41  1  0
 22 42  1  0
 23 43  1  0
 24 44  1  0
 25 45  1  0
M  END
$$$$
