
     RDKit          3D

 47 50  0  0  0  0  0  0  0  0999 V2000
    1.7338   -0.3658   -1.7867 C   0  0  1  0  0  0  0  0  0  0  0  0
    0.7598    1.1844   -1.7394 S   0  0  0  0  0  0  0  0  0  0  0  0
    1.8936    2.0037   -0.5152 C   0  0  0  0  0  0  0  0  0  0  0  0
    1.1514    2.0562    0.8295 C   0  0  0  0  0  0  0  0  0  0  0  0
    2.1738    3.4462   -0.9800 C   0  0  0  0  0  0  0  0  0  0  0  0
    3.1784    1.1266   -0.3618 C   0  0  1  0  0  0  0  0  0  0  0  0
    2.7631   -0.1752   -0.8118 N   0  0  0  0  0  0  0  0  0  0  0  0
    2.2856   -1.3906   -0.1118 C   0  0  0  0  0  0  0  0  0  0  0  0
    2.6105   -1.9979    0.9416 O   0  0  0  0  0  0  0  0  0  0  0  0
    1.2114   -1.5500   -1.1409 C   0  0  1  0  0  0  0  0  0  0  0  0
   -0.1333   -1.4090   -0.5743 N   0  0  0  0  0  0  0  0  0  0  0  0
   -1.2955   -1.5333   -1.4093 C   0  0  0  0  0  0  0  0  0  0  0  0
   -1.1633   -1.4843   -2.6623 O   0  0  0  0  0  0  0  0  0  0  0  0
   -2.6422   -1.7758   -0.8400 C   0  0  0  0  0  0  0  0  0  0  0  0
   -3.7109   -2.3957   -1.4698 C   0  0  0  0  0  0  0  0  0  0  0  0
   -3.7585   -2.9259   -2.8658 C   0  0  0  0  0  0  0  0  0  0  0  0
   -4.7177   -2.4624   -0.6313 O   0  0  0  0  0  0  0  0  0  0  0  0
   -4.4115   -1.9325    0.5161 N   0  0  0  0  0  0  0  0  0  0  0  0
   -3.1393   -1.4977    0.4281 C   0  0  0  0  0  0  0  0  0  0  0  0
   -2.4786   -0.7683    1.5242 C   0  0  0  0  0  0  0  0  0  0  0  0
   -2.2754    0.6246    1.4370 C   0  0  0  0  0  0  0  0  0  0  0  0
   -2.7468    1.5375    0.0073 Cl  0  0  0  0  0  0  0  0  0  0  0  0
   -1.7144    1.3160    2.5167 C   0  0  0  0  0  0  0  0  0  0  0  0
   -1.3293    0.6308    3.6696 C   0  0  0  0  0  0  0  0  0  0  0  0
   -1.5188   -0.7486    3.7594 C   0  0  0  0  0  0  0  0  0  0  0  0
   -2.1009   -1.4512    2.6988 C   0  0  0  0  0  0  0  0  0  0  0  0
   -2.3188   -3.1910    2.8601 Cl  0  0  0  0  0  0  0  0  0  0  0  0
    4.3508    1.5841   -1.1898 C   0  0  0  0  0  0  0  0  0  0  0  0
    5.4031    2.2574   -0.5775 O   0  0  0  0  0  0  0  0  0  0  0  0
    4.3693    1.3945   -2.4364 O   0  0  0  0  0  0  0  0  0  0  0  0
    2.1675   -0.5676   -2.7908 H   0  0  0  0  0  0  0  0  0  0  0  0
    0.2045    2.6269    0.7252 H   0  0  0  0  0  0  0  0  0  0  0  0
    0.9060    1.0301    1.1784 H   0  0  0  0  0  0  0  0  0  0  0  0
    1.7756    2.5525    1.6035 H   0  0  0  0  0  0  0  0  0  0  0  0
    1.2340    4.0390   -0.9989 H   0  0  0  0  0  0  0  0  0  0  0  0
    2.5925    3.4556   -2.0083 H   0  0  0  0  0  0  0  0  0  0  0  0
    2.8911    3.9436   -0.2924 H   0  0  0  0  0  0  0  0  0  0  0  0
    3.5079    1.0604    0.6989 H   0  0  0  0  0  0  0  0  0  0  0  0
    1.3348   -2.4833   -1.7330 H   0  0  0  0  0  0  0  0  0  0  0  0
   -0.2370   -1.4581    0.4619 H   0  0  0  0  0  0  0  0  0  0  0  0
   -2.9176   -3.6318   -3.0301 H   0  0  0  0  0  0  0  0  0  0  0  0
   -4.7149   -3.4637   -3.0337 H   0  0  0  0  0  0  0  0  0  0  0  0
   -3.6874   -2.0861   -3.5878 H   0  0  0  0  0  0  0  0  0  0  0  0
   -1.5742    2.3879    2.4630 H   0  0  0  0  0  0  0  0  0  0  0  0
   -0.8868    1.1708    4.4967 H   0  0  0  0  0  0  0  0  0  0  0  0
   -1.2183   -1.2713    4.6586 H   0  0  0  0  0  0  0  0  0  0  0  0
    6.1931    2.5879   -1.1185 H   0  0  0  0  0  0  0  0  0  0  0  0
  1  2  1  0
  2  3  1  0
  3  4  1  0
  3  5  1  0
  3  6  1  0
  6  7  1  0
  7  8  1  0
  8  9  2  0
  8 10  1  0
 10 11  1  0
 11 12  1  0
 12 13  2  0
 12 14  1  0
 14 15  2  0
 15 16  1  0
 15 17  1  0
 17 18  1  0
 18 19  2  0
 19 20  1  0
 20 21  2  0
 21 22  1  0
 21 23  1  0
 23 24  2  0
 24 25  1  0
 25 26  2  0
 26 27  1  0
  6 28  1  0
 28 29  1  0
 28 30  2  0
  7  1  1  0
 19 14  1  0
 26 20  1  0
 10  1  1  0
  1 31  1  6
  4 32  1  0
  4 33  1  0
  4 34  1  0
  5 35  1  0
  5 36  1  0
  5 37  1  0
  6 38  1  1
 10 39  1  6
 11 40  1  0
 16 41  1  0
 16 42  1  0
 16 43  1  0
 23 44  1  0
 24 45  1  0
 25 46  1  0
 29 47  1  0
M  END
$$$$
