
     RDKit          3D

 30 30  0  0  0  0  0  0  0  0999 V2000
    1.8527    0.6665    0.3068 N   0  0  0  0  0  0  0  0  0  0  0  0
    0.5371    0.5044   -0.3159 C   0  0  2  0  0  0  0  0  0  0  0  0
   -0.4585    0.8157    0.6497 O   0  0  0  0  0  0  0  0  0  0  0  0
   -1.7437    0.4604    0.1801 C   0  0  2  0  0  0  0  0  0  0  0  0
   -2.7934    1.1703    1.0427 C   0  0  0  0  0  0  0  0  0  0  0  0
   -4.0805    0.8988    0.5603 O   0  0  0  0  0  0  0  0  0  0  0  0
   -1.9055   -1.0822    0.2408 C   0  0  1  0  0  0  0  0  0  0  0  0
   -2.9145   -1.5096   -0.6418 O   0  0  0  0  0  0  0  0  0  0  0  0
   -0.5629   -1.8106   -0.0536 C   0  0  2  0  0  0  0  0  0  0  0  0
    0.0616   -2.2224    1.1394 O   0  0  0  0  0  0  0  0  0  0  0  0
    0.3993   -0.9434   -0.8946 C   0  0  1  0  0  0  0  0  0  0  0  0
   -0.0781   -0.8848   -2.2149 O   0  0  0  0  0  0  0  0  0  0  0  0
    3.0599    0.7834   -0.4593 C   0  0  0  0  0  0  0  0  0  0  0  0
    4.3701    0.9560    0.2371 C   0  0  0  0  0  0  0  0  0  0  0  0
    3.0212    0.7684   -1.7194 O   0  0  0  0  0  0  0  0  0  0  0  0
    1.9132    0.7448    1.3475 H   0  0  0  0  0  0  0  0  0  0  0  0
    0.4605    1.2516   -1.1395 H   0  0  0  0  0  0  0  0  0  0  0  0
   -1.8871    0.8234   -0.8664 H   0  0  0  0  0  0  0  0  0  0  0  0
   -2.6093    2.2675    1.0044 H   0  0  0  0  0  0  0  0  0  0  0  0
   -2.7047    0.8369    2.1014 H   0  0  0  0  0  0  0  0  0  0  0  0
   -4.7068    1.3781    1.1626 H   0  0  0  0  0  0  0  0  0  0  0  0
   -2.2277   -1.3740    1.2652 H   0  0  0  0  0  0  0  0  0  0  0  0
   -2.6187   -1.2977   -1.5651 H   0  0  0  0  0  0  0  0  0  0  0  0
   -0.7792   -2.7380   -0.6292 H   0  0  0  0  0  0  0  0  0  0  0  0
    0.2239   -1.4179    1.6965 H   0  0  0  0  0  0  0  0  0  0  0  0
    1.3897   -1.4578   -0.9000 H   0  0  0  0  0  0  0  0  0  0  0  0
    0.6806   -0.5873   -2.7822 H   0  0  0  0  0  0  0  0  0  0  0  0
    4.4180    1.9687    0.6884 H   0  0  0  0  0  0  0  0  0  0  0  0
    4.4715    0.1936    1.0376 H   0  0  0  0  0  0  0  0  0  0  0  0
    5.2113    0.8370   -0.4785 H   0  0  0  0  0  0  0  0  0  0  0  0
  1  2  1  0
  2  3  1  0
  3  4  1  0
  4  5  1  0
  5  6  1  0
  4  7  1  0
  7  8  1  0
  7  9  1  0
  9 10  1  0
  9 11  1  0
 11 12  1  0
  1 13  1  0
 13 14  1  0
 13 15  2  0
 11  2  1  0
  1 16  1  0
  2 17  1  6
  4 18  1  6
  5 19  1  0
  5 20  1  0
  6 21  1  0
  7 22  1  1
  8 23  1  0
  9 24  1  6
 10 25  1  0
 11 26  1  6
 12 27  1  0
 14 28  1  0
 14 29  1  0
 14 30  1  0
M  END
$$$$
