
     RDKit          3D

 91 96  0  0  0  0  0  0  0  0999 V2000
   -1.3395    0.1769    0.0947 C   0  0  2  0  0  0  0  0  0  0  0  0
   -2.8186   -0.0018    0.3999 C   0  0  0  0  0  0  0  0  0  0  0  0
   -3.4915    0.7668   -0.7623 C   0  0  1  0  0  0  0  0  0  0  0  0
   -2.4591    0.7223   -1.9559 C   0  0  2  0  0  0  0  0  0  0  0  0
   -2.9906    0.1591   -3.1576 O   0  0  0  0  0  0  0  0  0  0  0  0
   -2.4679    0.4071   -4.4315 C   0  0  0  0  0  0  0  0  0  0  0  0
   -3.0359   -0.3110   -5.6071 C   0  0  0  0  0  0  0  0  0  0  0  0
   -1.5573    1.2616   -4.6037 O   0  0  0  0  0  0  0  0  0  0  0  0
   -1.2187   -0.0594   -1.4175 C   0  0  2  0  0  0  0  0  0  0  0  0
   -1.2995   -1.5699   -1.8170 C   0  0  0  0  0  0  0  0  0  0  0  0
    0.1470    0.5198   -1.8635 C   0  0  0  0  0  0  0  0  0  0  0  0
    1.3261   -0.1090   -1.0758 C   0  0  0  0  0  0  0  0  0  0  0  0
    1.1294   -0.0742    0.4771 C   0  0  1  0  0  0  0  0  0  0  0  0
   -0.2840   -0.6031    0.9058 C   0  0  1  0  0  0  0  0  0  0  0  0
   -0.4953   -0.4112    2.4184 C   0  0  0  0  0  0  0  0  0  0  0  0
    0.6092   -1.0999    3.2224 C   0  0  0  0  0  0  0  0  0  0  0  0
    1.9973   -0.5667    2.8198 C   0  0  1  0  0  0  0  0  0  0  0  0
    3.0975   -1.1592    3.7355 C   0  0  0  0  0  0  0  0  0  0  0  0
    4.5357   -0.9321    3.2022 C   0  0  2  0  0  0  0  0  0  0  0  0
    5.4253   -0.7127    4.2696 O   0  0  0  0  0  0  0  0  0  0  0  0
    4.6031    0.2250    2.1790 C   0  0  2  0  0  0  0  0  0  0  0  0
    3.6654   -0.0234    0.9563 C   0  0  0  0  0  0  0  0  0  0  0  0
    2.3040   -0.7461    1.2919 C   0  0  2  0  0  0  0  0  0  0  0  0
    2.4269   -2.2591    0.9266 C   0  0  0  0  0  0  0  0  0  0  0  0
    6.0133    0.5381    1.8202 N   0  0  0  0  0  0  0  0  0  0  0  0
    6.7011   -0.4276    0.9426 C   0  0  0  0  0  0  0  0  0  0  0  0
    8.2122   -0.1112    0.9328 C   0  0  0  0  0  0  0  0  0  0  0  0
    8.5064    1.1891    1.4221 O   0  0  0  0  0  0  0  0  0  0  0  0
    7.6369    2.1399    0.8387 C   0  0  0  0  0  0  0  0  0  0  0  0
    6.1882    1.9151    1.3164 C   0  0  0  0  0  0  0  0  0  0  0  0
   -4.9352    0.3869   -1.0214 N   0  0  0  0  0  4  0  0  0  0  0  0
   -5.7567    0.5663    0.2269 C   0  0  0  0  0  0  0  0  0  0  0  0
   -5.7810    1.9801    0.7768 C   0  0  0  0  0  0  0  0  0  0  0  0
   -6.3545    2.2434    1.9533 C   0  0  0  0  0  0  0  0  0  0  0  0
   -5.5319    1.2030   -2.1256 C   0  0  0  0  0  0  0  0  0  0  0  0
   -6.1616    0.2620   -3.1475 C   0  0  0  0  0  0  0  0  0  0  0  0
   -6.2119   -1.0839   -2.4707 C   0  0  0  0  0  0  0  0  0  0  0  0
   -5.0913   -1.0311   -1.4520 C   0  0  0  0  0  0  0  0  0  0  0  0
   -1.1384    1.2594    0.2971 H   0  0  0  0  0  0  0  0  0  0  0  0
   -3.0755    0.4559    1.3803 H   0  0  0  0  0  0  0  0  0  0  0  0
   -3.0949   -1.0759    0.4170 H   0  0  0  0  0  0  0  0  0  0  0  0
   -3.4760    1.8326   -0.4420 H   0  0  0  0  0  0  0  0  0  0  0  0
   -2.1639    1.7765   -2.1682 H   0  0  0  0  0  0  0  0  0  0  0  0
   -2.2245   -0.5844   -6.3138 H   0  0  0  0  0  0  0  0  0  0  0  0
   -3.5482   -1.2378   -5.2731 H   0  0  0  0  0  0  0  0  0  0  0  0
   -3.7681    0.3444   -6.1227 H   0  0  0  0  0  0  0  0  0  0  0  0
   -1.3142   -1.6836   -2.9206 H   0  0  0  0  0  0  0  0  0  0  0  0
   -2.1905   -2.0694   -1.4001 H   0  0  0  0  0  0  0  0  0  0  0  0
   -0.4361   -2.1616   -1.4634 H   0  0  0  0  0  0  0  0  0  0  0  0
    0.3010    0.3388   -2.9486 H   0  0  0  0  0  0  0  0  0  0  0  0
    0.1655    1.6211   -1.7070 H   0  0  0  0  0  0  0  0  0  0  0  0
    1.4876   -1.1418   -1.4342 H   0  0  0  0  0  0  0  0  0  0  0  0
    2.2424    0.4528   -1.3517 H   0  0  0  0  0  0  0  0  0  0  0  0
    1.1481    1.0078    0.7472 H   0  0  0  0  0  0  0  0  0  0  0  0
   -0.3888   -1.6848    0.6962 H   0  0  0  0  0  0  0  0  0  0  0  0
   -0.5153    0.6726    2.6698 H   0  0  0  0  0  0  0  0  0  0  0  0
   -1.4706   -0.8506    2.7198 H   0  0  0  0  0  0  0  0  0  0  0  0
    0.4350   -0.8947    4.3014 H   0  0  0  0  0  0  0  0  0  0  0  0
    0.5497   -2.2003    3.0833 H   0  0  0  0  0  0  0  0  0  0  0  0
    1.9723    0.5284    3.0272 H   0  0  0  0  0  0  0  0  0  0  0  0
    2.9890   -0.6981    4.7422 H   0  0  0  0  0  0  0  0  0  0  0  0
    2.9362   -2.2511    3.8732 H   0  0  0  0  0  0  0  0  0  0  0  0
    4.8619   -1.8642    2.7001 H   0  0  0  0  0  0  0  0  0  0  0  0
    5.1849    0.1550    4.6887 H   0  0  0  0  0  0  0  0  0  0  0  0
    4.1947    1.1141    2.7137 H   0  0  0  0  0  0  0  0  0  0  0  0
    4.1845   -0.5915    0.1618 H   0  0  0  0  0  0  0  0  0  0  0  0
    3.4652    0.9780    0.5208 H   0  0  0  0  0  0  0  0  0  0  0  0
    3.1864   -2.7748    1.5415 H   0  0  0  0  0  0  0  0  0  0  0  0
    1.4777   -2.8087    1.0664 H   0  0  0  0  0  0  0  0  0  0  0  0
    2.7437   -2.3993   -0.1261 H   0  0  0  0  0  0  0  0  0  0  0  0
    6.3288   -0.3431   -0.1015 H   0  0  0  0  0  0  0  0  0  0  0  0
    6.5489   -1.4705    1.2876 H   0  0  0  0  0  0  0  0  0  0  0  0
    8.6266   -0.2336   -0.0926 H   0  0  0  0  0  0  0  0  0  0  0  0
    8.7344   -0.8443    1.5837 H   0  0  0  0  0  0  0  0  0  0  0  0
    7.9692    3.1577    1.1340 H   0  0  0  0  0  0  0  0  0  0  0  0
    7.6924    2.0916   -0.2736 H   0  0  0  0  0  0  0  0  0  0  0  0
    5.9664    2.6310    2.1378 H   0  0  0  0  0  0  0  0  0  0  0  0
    5.4938    2.1241    0.4739 H   0  0  0  0  0  0  0  0  0  0  0  0
   -6.8140    0.2690    0.0372 H   0  0  0  0  0  0  0  0  0  0  0  0
   -5.3927   -0.1097    1.0328 H   0  0  0  0  0  0  0  0  0  0  0  0
   -5.3570    2.8074    0.2170 H   0  0  0  0  0  0  0  0  0  0  0  0
   -6.8041    1.4515    2.5448 H   0  0  0  0  0  0  0  0  0  0  0  0
   -6.3764    3.2601    2.3320 H   0  0  0  0  0  0  0  0  0  0  0  0
   -4.7896    1.8595   -2.6296 H   0  0  0  0  0  0  0  0  0  0  0  0
   -6.3301    1.8932   -1.7709 H   0  0  0  0  0  0  0  0  0  0  0  0
   -7.1797    0.5980   -3.4426 H   0  0  0  0  0  0  0  0  0  0  0  0
   -5.5261    0.2037   -4.0567 H   0  0  0  0  0  0  0  0  0  0  0  0
   -6.0699   -1.9131   -3.1978 H   0  0  0  0  0  0  0  0  0  0  0  0
   -7.1875   -1.2096   -1.9517 H   0  0  0  0  0  0  0  0  0  0  0  0
   -5.3082   -1.7274   -0.6094 H   0  0  0  0  0  0  0  0  0  0  0  0
   -4.1889   -1.4301   -1.9385 H   0  0  0  0  0  0  0  0  0  0  0  0
  1  2  1  0
  2  3  1  0
  3  4  1  0
  4  5  1  0
  5  6  1  0
  6  7  1  0
  6  8  2  0
  4  9  1  0
  9 10  1  1
  9 11  1  0
 11 12  1  0
 12 13  1  0
 13 14  1  0
 14 15  1  0
 15 16  1  0
 16 17  1  0
 17 18  1  0
 18 19  1  0
 19 20  1  0
 19 21  1  0
 21 22  1  0
 22 23  1  0
 23 24  1  1
 21 25  1  0
 25 26  1  0
 26 27  1  0
 27 28  1  0
 28 29  1  0
 29 30  1  0
  3 31  1  0
 31 32  1  0
 32 33  1  0
 33 34  2  3
 31 35  1  0
 35 36  1  0
 36 37  1  0
 37 38  1  0
  9  1  1  0
 23 13  1  0
 30 25  1  0
 38 31  1  0
 14  1  1  0
 23 17  1  0
  1 39  1  6
  2 40  1  0
  2 41  1  0
  3 42  1  1
  4 43  1  6
  7 44  1  0
  7 45  1  0
  7 46  1  0
 10 47  1  0
 10 48  1  0
 10 49  1  0
 11 50  1  0
 11 51  1  0
 12 52  1  0
 12 53  1  0
 13 54  1  1
 14 55  1  1
 15 56  1  0
 15 57  1  0
 16 58  1  0
 16 59  1  0
 17 60  1  6
 18 61  1  0
 18 62  1  0
 19 63  1  6
 20 64  1  0
 21 65  1  1
 22 66  1  0
 22 67  1  0
 24 68  1  0
 24 69  1  0
 24 70  1  0
 26 71  1  0
 26 72  1  0
 27 73  1  0
 27 74  1  0
 29 75  1  0
 29 76  1  0
 30 77  1  0
 30 78  1  0
 32 79  1  0
 32 80  1  0
 33 81  1  0
 34 82  1  0
 34 83  1  0
 35 84  1  0
 35 85  1  0
 36 86  1  0
 36 87  1  0
 37 88  1  0
 37 89  1  0
 38 90  1  0
 38 91  1  0
M  CHG  1  31   1
M  END
$$$$
