
     RDKit          3D

 67 69  0  0  0  0  0  0  0  0999 V2000
    3.9190   -0.0173   -0.1528 C   0  0  2  0  0  0  0  0  0  0  0  0
    4.9372   -1.0942   -0.6367 C   0  0  0  0  0  0  0  0  0  0  0  0
    5.9771   -0.5665   -1.6565 C   0  0  0  0  0  0  0  0  0  0  0  0
    6.8192   -1.7305   -2.1972 C   0  0  0  0  0  0  0  0  0  0  0  0
    6.8979    0.5043   -1.0553 C   0  0  0  0  0  0  0  0  0  0  0  0
    4.2915    0.6061    1.2149 C   0  0  0  0  0  0  0  0  0  0  0  0
    4.2091   -0.3615    2.3609 C   0  0  0  0  0  0  0  0  0  0  0  0
    5.3452   -1.0515    2.7721 O   0  0  0  0  0  0  0  0  0  0  0  0
    3.1105   -0.5542    2.9478 O   0  0  0  0  0  0  0  0  0  0  0  0
    2.5032   -0.5506   -0.1116 C   0  0  0  0  0  0  0  0  0  0  0  0
    2.2852   -1.7351    0.2667 O   0  0  0  0  0  0  0  0  0  0  0  0
    1.4034    0.3162   -0.4284 N   0  0  0  0  0  0  0  0  0  0  0  0
    0.0091   -0.0860   -0.2332 C   0  0  1  0  0  0  0  0  0  0  0  0
   -0.3688    0.0801    1.2550 C   0  0  0  0  0  0  0  0  0  0  0  0
   -1.8211   -0.1927    1.5114 C   0  0  0  0  0  0  0  0  0  0  0  0
   -2.8151    0.7675    1.6281 C   0  0  0  0  0  0  0  0  0  0  0  0
   -4.0357    0.1848    1.6505 N   0  0  0  0  0  0  0  0  0  0  0  0
   -5.3077    0.9011    1.5291 C   0  0  0  0  0  0  0  0  0  0  0  0
   -5.9106    0.7740    0.1153 C   0  0  0  0  0  0  0  0  0  0  0  0
   -4.9030    0.9251   -1.0405 C   0  0  0  0  0  0  0  0  0  0  0  0
   -4.3139    2.3393   -1.1635 C   0  0  0  0  0  0  0  0  0  0  0  0
   -3.3150    2.4262   -2.3405 C   0  0  0  0  0  0  0  0  0  0  0  0
   -1.9097    2.9003   -1.9303 C   0  0  0  0  0  0  0  0  0  0  0  0
   -1.2868    2.0335   -0.9255 N   0  0  0  0  0  0  0  0  0  0  0  0
   -0.8737    0.6826   -1.1964 C   0  0  0  0  0  0  0  0  0  0  0  0
   -1.1795    0.1410   -2.2929 O   0  0  0  0  0  0  0  0  0  0  0  0
   -3.8193   -1.1468    1.5824 C   0  0  0  0  0  0  0  0  0  0  0  0
   -2.4737   -1.4103    1.4888 C   0  0  0  0  0  0  0  0  0  0  0  0
   -1.9852   -2.7083    1.3423 C   0  0  0  0  0  0  0  0  0  0  0  0
   -2.9171   -3.7604    1.3083 C   0  0  0  0  0  0  0  0  0  0  0  0
   -4.3001   -3.4950    1.4100 C   0  0  0  0  0  0  0  0  0  0  0  0
   -4.7657   -2.1745    1.5436 C   0  0  0  0  0  0  0  0  0  0  0  0
    3.9206    0.8114   -0.8948 H   0  0  0  0  0  0  0  0  0  0  0  0
    4.3848   -1.9175   -1.1421 H   0  0  0  0  0  0  0  0  0  0  0  0
    5.4617   -1.5617    0.2231 H   0  0  0  0  0  0  0  0  0  0  0  0
    5.4362   -0.1174   -2.5191 H   0  0  0  0  0  0  0  0  0  0  0  0
    7.3896   -2.2155   -1.3758 H   0  0  0  0  0  0  0  0  0  0  0  0
    6.1654   -2.4897   -2.6773 H   0  0  0  0  0  0  0  0  0  0  0  0
    7.5351   -1.3652   -2.9643 H   0  0  0  0  0  0  0  0  0  0  0  0
    6.3294    1.4355   -0.8553 H   0  0  0  0  0  0  0  0  0  0  0  0
    7.3612    0.1406   -0.1131 H   0  0  0  0  0  0  0  0  0  0  0  0
    7.7062    0.7657   -1.7714 H   0  0  0  0  0  0  0  0  0  0  0  0
    3.6097    1.4606    1.4205 H   0  0  0  0  0  0  0  0  0  0  0  0
    5.3168    1.0250    1.1825 H   0  0  0  0  0  0  0  0  0  0  0  0
    5.3030   -1.7111    3.5397 H   0  0  0  0  0  0  0  0  0  0  0  0
    1.6089    1.3112   -0.6765 H   0  0  0  0  0  0  0  0  0  0  0  0
   -0.0928   -1.1649   -0.4881 H   0  0  0  0  0  0  0  0  0  0  0  0
   -0.1126    1.1026    1.6063 H   0  0  0  0  0  0  0  0  0  0  0  0
    0.2343   -0.6261    1.8650 H   0  0  0  0  0  0  0  0  0  0  0  0
   -2.6524    1.8367    1.6361 H   0  0  0  0  0  0  0  0  0  0  0  0
   -6.0293    0.5001    2.2729 H   0  0  0  0  0  0  0  0  0  0  0  0
   -5.1594    1.9767    1.7692 H   0  0  0  0  0  0  0  0  0  0  0  0
   -6.3855   -0.2258    0.0228 H   0  0  0  0  0  0  0  0  0  0  0  0
   -6.7221    1.5247   -0.0007 H   0  0  0  0  0  0  0  0  0  0  0  0
   -4.0850    0.1807   -0.9369 H   0  0  0  0  0  0  0  0  0  0  0  0
   -5.4360    0.6855   -1.9868 H   0  0  0  0  0  0  0  0  0  0  0  0
   -5.1449    3.0575   -1.3379 H   0  0  0  0  0  0  0  0  0  0  0  0
   -3.8305    2.6388   -0.2131 H   0  0  0  0  0  0  0  0  0  0  0  0
   -3.2345    1.4591   -2.8804 H   0  0  0  0  0  0  0  0  0  0  0  0
   -3.7109    3.1504   -3.0857 H   0  0  0  0  0  0  0  0  0  0  0  0
   -1.9825    3.9345   -1.5281 H   0  0  0  0  0  0  0  0  0  0  0  0
   -1.2601    2.9398   -2.8312 H   0  0  0  0  0  0  0  0  0  0  0  0
   -1.0012    2.4793   -0.0264 H   0  0  0  0  0  0  0  0  0  0  0  0
   -0.9242   -2.9041    1.2560 H   0  0  0  0  0  0  0  0  0  0  0  0
   -2.5719   -4.7802    1.1995 H   0  0  0  0  0  0  0  0  0  0  0  0
   -5.0077   -4.3132    1.3803 H   0  0  0  0  0  0  0  0  0  0  0  0
   -5.8252   -1.9710    1.6185 H   0  0  0  0  0  0  0  0  0  0  0  0
  1  2  1  0
  2  3  1  0
  3  4  1  0
  3  5  1  0
  1  6  1  0
  6  7  1  0
  7  8  1  0
  7  9  2  0
  1 10  1  0
 10 11  2  0
 10 12  1  0
 12 13  1  0
 13 14  1  0
 14 15  1  0
 15 16  2  0
 16 17  1  0
 17 18  1  0
 18 19  1  0
 19 20  1  0
 20 21  1  0
 21 22  1  0
 22 23  1  0
 23 24  1  0
 24 25  1  0
 25 26  2  0
 17 27  1  0
 27 28  2  0
 28 29  1  0
 29 30  2  0
 30 31  1  0
 31 32  2  0
 25 13  1  0
 32 27  1  0
 28 15  1  0
  1 33  1  6
  2 34  1  0
  2 35  1  0
  3 36  1  0
  4 37  1  0
  4 38  1  0
  4 39  1  0
  5 40  1  0
  5 41  1  0
  5 42  1  0
  6 43  1  0
  6 44  1  0
  8 45  1  0
 12 46  1  0
 13 47  1  6
 14 48  1  0
 14 49  1  0
 16 50  1  0
 18 51  1  0
 18 52  1  0
 19 53  1  0
 19 54  1  0
 20 55  1  0
 20 56  1  0
 21 57  1  0
 21 58  1  0
 22 59  1  0
 22 60  1  0
 23 61  1  0
 23 62  1  0
 24 63  1  0
 29 64  1  0
 30 65  1  0
 31 66  1  0
 32 67  1  0
M  END
$$$$
