
     RDKit          3D

 33 33  0  0  0  0  0  0  0  0999 V2000
   -5.0294    0.0173   -0.0021 N   0  0  0  0  0  0  0  0  0  0  0  0
   -4.4419    1.3000    0.3675 C   0  0  0  0  0  0  0  0  0  0  0  0
   -3.0525    1.3992   -0.1808 C   0  0  0  0  0  0  0  0  0  0  0  0
   -2.8374    2.0998   -1.2069 O   0  0  0  0  0  0  0  0  0  0  0  0
   -1.9837    0.6669    0.4358 N   0  0  0  0  0  0  0  0  0  0  0  0
   -0.6083    0.7031   -0.0707 C   0  0  0  0  0  0  0  0  0  0  0  0
    0.2770    0.3404    0.9705 O   0  0  0  0  0  0  0  0  0  0  0  0
    0.9607   -0.8378    0.5953 C   0  0  2  0  0  0  0  0  0  0  0  0
    2.4340   -0.5056    0.3238 C   0  0  0  0  0  0  0  0  0  0  0  0
    3.0054    0.0436    1.4881 O   0  0  0  0  0  0  0  0  0  0  0  0
    4.6260    0.4548    1.1513 P   0  0  0  0  0  5  0  0  0  0  0  0
    5.4697   -0.8959    0.5764 O   0  0  0  0  0  0  0  0  0  0  0  0
    5.3579    1.0002    2.5759 O   0  0  0  0  0  0  0  0  0  0  0  0
    4.6747    1.5576    0.1172 O   0  0  0  0  0  0  0  0  0  0  0  0
    0.2769   -1.4410   -0.6344 C   0  0  1  0  0  0  0  0  0  0  0  0
   -0.6398   -2.4474   -0.2676 O   0  0  0  0  0  0  0  0  0  0  0  0
   -0.4085   -0.2469   -1.2563 C   0  0  1  0  0  0  0  0  0  0  0  0
   -1.6156   -0.5947   -1.8867 O   0  0  0  0  0  0  0  0  0  0  0  0
   -5.1989    0.0209   -1.0346 H   0  0  0  0  0  0  0  0  0  0  0  0
   -5.9688   -0.0448    0.4531 H   0  0  0  0  0  0  0  0  0  0  0  0
   -4.4020    1.3842    1.4750 H   0  0  0  0  0  0  0  0  0  0  0  0
   -5.0698    2.1333   -0.0205 H   0  0  0  0  0  0  0  0  0  0  0  0
   -2.1845    0.1323    1.3114 H   0  0  0  0  0  0  0  0  0  0  0  0
   -0.3626    1.7427   -0.3811 H   0  0  0  0  0  0  0  0  0  0  0  0
    0.9218   -1.5601    1.4409 H   0  0  0  0  0  0  0  0  0  0  0  0
    2.9590   -1.4469    0.0429 H   0  0  0  0  0  0  0  0  0  0  0  0
    2.4847    0.2179   -0.5224 H   0  0  0  0  0  0  0  0  0  0  0  0
    5.4075   -1.5606    1.3080 H   0  0  0  0  0  0  0  0  0  0  0  0
    6.3073    1.1440    2.3334 H   0  0  0  0  0  0  0  0  0  0  0  0
    1.0073   -1.8817   -1.3486 H   0  0  0  0  0  0  0  0  0  0  0  0
   -1.2765   -2.0650    0.3917 H   0  0  0  0  0  0  0  0  0  0  0  0
    0.2797    0.2370   -1.9895 H   0  0  0  0  0  0  0  0  0  0  0  0
   -1.3693   -1.0667   -2.7246 H   0  0  0  0  0  0  0  0  0  0  0  0
  1  2  1  0
  2  3  1  0
  3  4  2  0
  3  5  1  0
  5  6  1  0
  6  7  1  0
  7  8  1  0
  8  9  1  0
  9 10  1  0
 10 11  1  0
 11 12  1  0
 11 13  1  0
 11 14  2  0
  8 15  1  0
 15 16  1  0
 15 17  1  0
 17 18  1  0
 17  6  1  0
  1 19  1  0
  1 20  1  0
  2 21  1  0
  2 22  1  0
  5 23  1  0
  6 24  1  0
  8 25  1  1
  9 26  1  0
  9 27  1  0
 12 28  1  0
 13 29  1  0
 15 30  1  6
 16 31  1  0
 17 32  1  6
 18 33  1  0
M  END
$$$$
