
     RDKit          3D

 48 51  0  0  0  0  0  0  0  0999 V2000
    9.5359    1.9097   -1.0542 F   0  0  0  0  0  0  0  0  0  0  0  0
    8.3975    2.4359   -0.4682 C   0  0  0  0  0  0  0  0  0  0  0  0
    8.7389    3.0131    0.7405 F   0  0  0  0  0  0  0  0  0  0  0  0
    7.8917    3.4131   -1.3080 F   0  0  0  0  0  0  0  0  0  0  0  0
    7.3717    1.3562   -0.2305 C   0  0  0  0  0  0  0  0  0  0  0  0
    7.7757    0.0390    0.0472 C   0  0  0  0  0  0  0  0  0  0  0  0
    6.8264   -0.9475    0.3231 C   0  0  0  0  0  0  0  0  0  0  0  0
    5.4668   -0.6307    0.3349 C   0  0  0  0  0  0  0  0  0  0  0  0
    5.0428    0.6811    0.0631 C   0  0  0  0  0  0  0  0  0  0  0  0
    3.6515    1.0407    0.1148 N   0  0  0  0  0  0  0  0  0  0  0  0
    2.5701    0.1735   -0.2612 C   0  0  0  0  0  0  0  0  0  0  0  0
    1.3478    0.3544    0.3070 N   0  0  0  0  0  0  0  0  0  0  0  0
    0.2839   -0.4221   -0.0316 C   0  0  0  0  0  0  0  0  0  0  0  0
   -0.9907   -0.1805    0.5811 N   0  0  0  0  0  0  0  0  0  0  0  0
   -2.1196   -1.0644    0.4751 C   0  0  0  0  0  0  0  0  0  0  0  0
   -3.4140   -0.5241    0.4262 C   0  0  0  0  0  0  0  0  0  0  0  0
   -4.5404   -1.3640    0.3502 C   0  0  0  0  0  0  0  0  0  0  0  0
   -5.8715   -0.8277    0.2614 N   0  0  0  0  0  0  0  0  0  0  0  0
   -6.2941    0.3865    0.9003 C   0  0  0  0  0  0  0  0  0  0  0  0
   -5.5985    0.9090    1.8126 O   0  0  0  0  0  0  0  0  0  0  0  0
   -7.6210    0.9897    0.5533 C   0  0  0  0  0  0  0  0  0  0  0  0
   -7.7856    1.3508   -0.9153 C   0  0  0  0  0  0  0  0  0  0  0  0
   -7.5619    2.4451    0.1138 C   0  0  0  0  0  0  0  0  0  0  0  0
   -4.3551   -2.7530    0.3021 C   0  0  0  0  0  0  0  0  0  0  0  0
   -3.0714   -3.2978    0.3766 C   0  0  0  0  0  0  0  0  0  0  0  0
   -1.9580   -2.4606    0.4745 C   0  0  0  0  0  0  0  0  0  0  0  0
    0.4287   -1.3808   -0.9865 N   0  0  0  0  0  0  0  0  0  0  0  0
    1.6237   -1.5876   -1.5959 C   0  0  0  0  0  0  0  0  0  0  0  0
    2.7255   -0.8075   -1.2510 C   0  0  0  0  0  0  0  0  0  0  0  0
    6.0020    1.6735   -0.1892 C   0  0  0  0  0  0  0  0  0  0  0  0
    8.8256   -0.2255    0.0608 H   0  0  0  0  0  0  0  0  0  0  0  0
    7.1466   -1.9582    0.5416 H   0  0  0  0  0  0  0  0  0  0  0  0
    4.7495   -1.4028    0.5810 H   0  0  0  0  0  0  0  0  0  0  0  0
    3.4049    1.9983    0.4536 H   0  0  0  0  0  0  0  0  0  0  0  0
   -1.1262    0.7349    1.0674 H   0  0  0  0  0  0  0  0  0  0  0  0
   -3.5334    0.5514    0.4108 H   0  0  0  0  0  0  0  0  0  0  0  0
   -6.5970   -1.3894   -0.2395 H   0  0  0  0  0  0  0  0  0  0  0  0
   -8.5428    0.6733    1.0854 H   0  0  0  0  0  0  0  0  0  0  0  0
   -6.9063    1.1653   -1.5697 H   0  0  0  0  0  0  0  0  0  0  0  0
   -8.8294    1.2928   -1.2898 H   0  0  0  0  0  0  0  0  0  0  0  0
   -6.5507    2.9045    0.0653 H   0  0  0  0  0  0  0  0  0  0  0  0
   -8.4734    3.0346    0.3477 H   0  0  0  0  0  0  0  0  0  0  0  0
   -5.2092   -3.4142    0.2261 H   0  0  0  0  0  0  0  0  0  0  0  0
   -2.9398   -4.3721    0.3657 H   0  0  0  0  0  0  0  0  0  0  0  0
   -0.9759   -2.9050    0.5668 H   0  0  0  0  0  0  0  0  0  0  0  0
    1.7148   -2.3508   -2.3572 H   0  0  0  0  0  0  0  0  0  0  0  0
    3.6687   -0.9523   -1.7613 H   0  0  0  0  0  0  0  0  0  0  0  0
    5.6754    2.6920   -0.3607 H   0  0  0  0  0  0  0  0  0  0  0  0
  1  2  1  0
  2  3  1  0
  2  4  1  0
  2  5  1  0
  5  6  2  0
  6  7  1  0
  7  8  2  0
  8  9  1  0
  9 10  1  0
 10 11  1  0
 11 12  2  0
 12 13  1  0
 13 14  1  0
 14 15  1  0
 15 16  2  0
 16 17  1  0
 17 18  1  0
 18 19  1  0
 19 20  2  0
 19 21  1  0
 21 22  1  0
 22 23  1  0
 17 24  2  0
 24 25  1  0
 25 26  2  0
 13 27  2  0
 27 28  1  0
 28 29  2  0
  9 30  2  0
 30  5  1  0
 29 11  1  0
 26 15  1  0
 23 21  1  0
  6 31  1  0
  7 32  1  0
  8 33  1  0
 10 34  1  0
 14 35  1  0
 16 36  1  0
 18 37  1  0
 21 38  1  0
 22 39  1  0
 22 40  1  0
 23 41  1  0
 23 42  1  0
 24 43  1  0
 25 44  1  0
 26 45  1  0
 28 46  1  0
 29 47  1  0
 30 48  1  0
M  END
$$$$
