
     RDKit          3D

 28 29  0  0  0  0  0  0  0  0999 V2000
    4.2524    1.7758    0.5877 C   0  0  0  0  0  0  0  0  0  0  0  0
    4.1158    0.3065    0.3553 C   0  0  0  0  0  0  0  0  0  0  0  0
    2.9466   -0.4274    0.2531 C   0  0  0  0  0  0  0  0  0  0  0  0
    3.3832   -1.7202    0.0355 C   0  0  0  0  0  0  0  0  0  0  0  0
    4.7302   -1.7331    0.0157 N   0  0  0  0  0  0  0  0  0  0  0  0
    5.1325   -0.5103    0.2096 O   0  0  0  0  0  0  0  0  0  0  0  0
    1.5500    0.0482    0.3322 C   0  0  0  0  0  0  0  0  0  0  0  0
    1.3193    1.2830    0.4370 O   0  0  0  0  0  0  0  0  0  0  0  0
    0.4599   -0.8887    0.3292 N   0  0  0  0  0  0  0  0  0  0  0  0
   -0.9089   -0.5233    0.0809 C   0  0  0  0  0  0  0  0  0  0  0  0
   -1.2416    0.5089   -0.8134 C   0  0  0  0  0  0  0  0  0  0  0  0
   -2.5804    0.8299   -1.0568 C   0  0  0  0  0  0  0  0  0  0  0  0
   -3.6111    0.1298   -0.4072 C   0  0  0  0  0  0  0  0  0  0  0  0
   -3.2771   -0.9334    0.4485 C   0  0  0  0  0  0  0  0  0  0  0  0
   -1.9383   -1.2543    0.6906 C   0  0  0  0  0  0  0  0  0  0  0  0
   -5.0551    0.4435   -0.7081 C   0  0  0  0  0  0  0  0  0  0  0  0
   -5.4701   -0.3139   -1.7873 F   0  0  0  0  0  0  0  0  0  0  0  0
   -5.2105    1.7850   -1.0119 F   0  0  0  0  0  0  0  0  0  0  0  0
   -5.8560    0.1518    0.3826 F   0  0  0  0  0  0  0  0  0  0  0  0
    5.3260    2.0498    0.6554 H   0  0  0  0  0  0  0  0  0  0  0  0
    3.7509    2.0544    1.5379 H   0  0  0  0  0  0  0  0  0  0  0  0
    3.7922    2.3332   -0.2545 H   0  0  0  0  0  0  0  0  0  0  0  0
    2.7692   -2.5983   -0.1109 H   0  0  0  0  0  0  0  0  0  0  0  0
    0.6546   -1.8726    0.6210 H   0  0  0  0  0  0  0  0  0  0  0  0
   -0.4709    1.0485   -1.3474 H   0  0  0  0  0  0  0  0  0  0  0  0
   -2.8100    1.6194   -1.7614 H   0  0  0  0  0  0  0  0  0  0  0  0
   -4.0513   -1.5194    0.9278 H   0  0  0  0  0  0  0  0  0  0  0  0
   -1.7019   -2.0728    1.3590 H   0  0  0  0  0  0  0  0  0  0  0  0
  1  2  1  0
  2  3  2  0
  3  4  1  0
  4  5  2  0
  5  6  1  0
  3  7  1  0
  7  8  2  0
  7  9  1  0
  9 10  1  0
 10 11  2  0
 11 12  1  0
 12 13  2  0
 13 14  1  0
 14 15  2  0
 13 16  1  0
 16 17  1  0
 16 18  1  0
 16 19  1  0
  6  2  1  0
 15 10  1  0
  1 20  1  0
  1 21  1  0
  1 22  1  0
  4 23  1  0
  9 24  1  0
 11 25  1  0
 12 26  1  0
 14 27  1  0
 15 28  1  0
M  END
$$$$
