
     RDKit          3D

 47 49  0  0  0  0  0  0  0  0999 V2000
   -1.6343   -0.1939   -0.8306 C   0  0  2  0  0  0  0  0  0  0  0  0
   -1.3353   -1.7024   -1.0199 C   0  0  0  0  0  0  0  0  0  0  0  0
   -1.6770   -2.5838    0.1846 C   0  0  0  0  0  0  0  0  0  0  0  0
   -0.7394    0.4841    0.2355 C   0  0  0  0  0  0  0  0  0  0  0  0
    0.6667    0.5084   -0.1733 N   0  0  0  0  0  0  0  0  0  0  0  0
    1.6850    1.0243    0.6979 C   0  0  0  0  0  0  0  0  0  0  0  0
    1.3515    1.6257    1.7559 O   0  0  0  0  0  0  0  0  0  0  0  0
    3.1230    0.8766    0.3680 C   0  0  0  0  0  0  0  0  0  0  0  0
    4.0644    1.7712    0.9080 C   0  0  0  0  0  0  0  0  0  0  0  0
    5.4234    1.6384    0.6087 C   0  0  0  0  0  0  0  0  0  0  0  0
    5.8634    0.6088   -0.2315 C   0  0  0  0  0  0  0  0  0  0  0  0
    4.9353   -0.2988   -0.7559 C   0  0  0  0  0  0  0  0  0  0  0  0
    3.5754   -0.1679   -0.4593 C   0  0  0  0  0  0  0  0  0  0  0  0
    7.5778    0.4310   -0.5924 S   0  0  0  0  0  6  0  0  0  0  0  0
    8.3173   -0.5902    0.5898 N   0  0  0  0  0  0  0  0  0  0  0  0
    8.2434    1.7786   -0.5775 O   0  0  0  0  0  0  0  0  0  0  0  0
    7.7502   -0.1754   -1.9569 O   0  0  0  0  0  0  0  0  0  0  0  0
   -3.1176    0.0571   -0.6008 C   0  0  0  0  0  0  0  0  0  0  0  0
   -3.6844    0.0379    0.6993 C   0  0  0  0  0  0  0  0  0  0  0  0
   -5.0557    0.2430    0.8231 C   0  0  0  0  0  0  0  0  0  0  0  0
   -5.8590    0.4498   -0.2640 C   0  0  0  0  0  0  0  0  0  0  0  0
   -7.1380    0.6140    0.1111 N   0  0  0  0  0  0  0  0  0  0  0  0
   -7.1436    0.5088    1.4597 C   0  0  0  0  0  0  0  0  0  0  0  0
   -5.8595    0.2756    1.9417 C   0  0  0  0  0  0  0  0  0  0  0  0
   -5.3485    0.4624   -1.5583 C   0  0  0  0  0  0  0  0  0  0  0  0
   -3.9670    0.2584   -1.7229 C   0  0  0  0  0  0  0  0  0  0  0  0
   -1.3708    0.2972   -1.7949 H   0  0  0  0  0  0  0  0  0  0  0  0
   -0.2612   -1.8438   -1.2647 H   0  0  0  0  0  0  0  0  0  0  0  0
   -1.9120   -2.0726   -1.8957 H   0  0  0  0  0  0  0  0  0  0  0  0
   -1.4221   -3.6380   -0.0530 H   0  0  0  0  0  0  0  0  0  0  0  0
   -2.7617   -2.5408    0.4123 H   0  0  0  0  0  0  0  0  0  0  0  0
   -1.0926   -2.2868    1.0785 H   0  0  0  0  0  0  0  0  0  0  0  0
   -1.0808    1.5324    0.3820 H   0  0  0  0  0  0  0  0  0  0  0  0
   -0.8220   -0.0368    1.2108 H   0  0  0  0  0  0  0  0  0  0  0  0
    0.9296    0.2019   -1.1363 H   0  0  0  0  0  0  0  0  0  0  0  0
    3.7486    2.5801    1.5553 H   0  0  0  0  0  0  0  0  0  0  0  0
    6.1314    2.3377    1.0351 H   0  0  0  0  0  0  0  0  0  0  0  0
    5.2644   -1.1143   -1.3873 H   0  0  0  0  0  0  0  0  0  0  0  0
    2.8880   -0.9020   -0.8580 H   0  0  0  0  0  0  0  0  0  0  0  0
    7.7995   -1.4974    0.5758 H   0  0  0  0  0  0  0  0  0  0  0  0
    8.1380   -0.1558    1.5228 H   0  0  0  0  0  0  0  0  0  0  0  0
   -3.0869   -0.1420    1.5824 H   0  0  0  0  0  0  0  0  0  0  0  0
   -7.9618    0.7844   -0.5076 H   0  0  0  0  0  0  0  0  0  0  0  0
   -8.0345    0.5942    2.0677 H   0  0  0  0  0  0  0  0  0  0  0  0
   -5.5592    0.1463    2.9731 H   0  0  0  0  0  0  0  0  0  0  0  0
   -5.9942    0.6183   -2.4129 H   0  0  0  0  0  0  0  0  0  0  0  0
   -3.5571    0.2540   -2.7251 H   0  0  0  0  0  0  0  0  0  0  0  0
  1  2  1  0
  2  3  1  0
  1  4  1  0
  4  5  1  0
  5  6  1  0
  6  7  2  0
  6  8  1  0
  8  9  2  0
  9 10  1  0
 10 11  2  0
 11 12  1  0
 12 13  2  0
 11 14  1  0
 14 15  1  0
 14 16  2  0
 14 17  2  0
  1 18  1  0
 18 19  2  0
 19 20  1  0
 20 21  2  0
 21 22  1  0
 22 23  1  0
 23 24  2  0
 21 25  1  0
 25 26  2  0
 13  8  1  0
 26 18  1  0
 24 20  1  0
  1 27  1  6
  2 28  1  0
  2 29  1  0
  3 30  1  0
  3 31  1  0
  3 32  1  0
  4 33  1  0
  4 34  1  0
  5 35  1  0
  9 36  1  0
 10 37  1  0
 12 38  1  0
 13 39  1  0
 15 40  1  0
 15 41  1  0
 19 42  1  0
 22 43  1  0
 23 44  1  0
 24 45  1  0
 25 46  1  0
 26 47  1  0
M  END
$$$$
