
     RDKit          3D

 23 23  0  0  0  0  0  0  0  0999 V2000
    2.4152   -0.9387   -1.1004 C   0  0  0  0  0  0  0  0  0  0  0  0
    1.8619    0.3257   -0.5289 C   0  0  0  0  0  0  0  0  0  0  0  0
    0.8286    0.4580    0.3825 C   0  0  0  0  0  0  0  0  0  0  0  0
   -0.0150   -0.6112    1.0264 C   0  0  0  0  0  0  0  0  0  0  0  0
   -1.2687   -0.9727    0.2050 C   0  0  2  0  0  0  0  0  0  0  0  0
   -0.8995   -1.4885   -1.1150 N   0  0  0  0  0  0  0  0  0  0  0  0
   -2.1933    0.2084    0.0762 C   0  0  0  0  0  0  0  0  0  0  0  0
   -3.1178    0.4703    1.0824 O   0  0  0  0  0  0  0  0  0  0  0  0
   -2.1063    0.9860   -0.9127 O   0  0  0  0  0  0  0  0  0  0  0  0
    0.7158    1.8222    0.5375 C   0  0  0  0  0  0  0  0  0  0  0  0
   -0.1956    2.4732    1.3617 O   0  0  0  0  0  0  0  0  0  0  0  0
    1.6208    2.4547   -0.2318 N   0  0  0  0  0  0  0  0  0  0  0  0
    2.2870    1.5263   -0.8577 O   0  0  0  0  0  0  0  0  0  0  0  0
    3.4473   -0.7616   -1.4684 H   0  0  0  0  0  0  0  0  0  0  0  0
    1.7845   -1.2706   -1.9502 H   0  0  0  0  0  0  0  0  0  0  0  0
    2.4477   -1.7337   -0.3274 H   0  0  0  0  0  0  0  0  0  0  0  0
   -0.3267   -0.2667    2.0366 H   0  0  0  0  0  0  0  0  0  0  0  0
    0.5988   -1.5236    1.1809 H   0  0  0  0  0  0  0  0  0  0  0  0
   -1.8155   -1.7708    0.7570 H   0  0  0  0  0  0  0  0  0  0  0  0
   -0.3470   -2.3664   -0.9796 H   0  0  0  0  0  0  0  0  0  0  0  0
   -1.7740   -1.7759   -1.6126 H   0  0  0  0  0  0  0  0  0  0  0  0
   -3.7350    1.2715    1.0249 H   0  0  0  0  0  0  0  0  0  0  0  0
   -0.2132    3.4843    1.4137 H   0  0  0  0  0  0  0  0  0  0  0  0
  1  2  1  0
  2  3  2  0
  3  4  1  0
  4  5  1  0
  5  6  1  0
  5  7  1  0
  7  8  1  0
  7  9  2  0
  3 10  1  0
 10 11  1  0
 10 12  2  0
 12 13  1  0
 13  2  1  0
  1 14  1  0
  1 15  1  0
  1 16  1  0
  4 17  1  0
  4 18  1  0
  5 19  1  1
  6 20  1  0
  6 21  1  0
  8 22  1  0
 11 23  1  0
M  END
$$$$
