
     RDKit          3D

 41 41  0  0  0  0  0  0  0  0999 V2000
    5.2486    0.3492    1.9239 C   0  0  0  0  0  0  0  0  0  0  0  0
    5.1435   -0.3530    0.5591 C   0  0  0  0  0  0  0  0  0  0  0  0
    5.9623   -1.6457    0.5670 C   0  0  0  0  0  0  0  0  0  0  0  0
    3.7468   -0.6728    0.2093 N   0  0  0  0  0  0  0  0  0  0  0  0
    2.9750    0.5192   -0.1726 C   0  0  0  0  0  0  0  0  0  0  0  0
    1.6777    0.1051   -0.8849 C   0  0  0  0  0  0  0  0  0  0  0  0
    0.8585   -0.6158   -0.0005 O   0  0  0  0  0  0  0  0  0  0  0  0
    0.9249    1.3447   -1.3916 C   0  0  0  0  0  0  0  0  0  0  0  0
   -0.2314    0.9684   -2.1422 O   0  0  0  0  0  0  0  0  0  0  0  0
   -1.4911    0.6381   -1.6142 C   0  0  0  0  0  0  0  0  0  0  0  0
   -1.8139    0.7787   -0.2502 C   0  0  0  0  0  0  0  0  0  0  0  0
   -3.0885    0.4376    0.2129 C   0  0  0  0  0  0  0  0  0  0  0  0
   -4.0682   -0.0323   -0.6787 C   0  0  0  0  0  0  0  0  0  0  0  0
   -5.3785   -0.4127   -0.2241 N   0  0  0  0  0  0  0  0  0  0  0  0
   -6.0759    0.2298    0.8543 C   0  0  0  0  0  0  0  0  0  0  0  0
   -7.3422   -0.3643    1.3788 C   0  0  0  0  0  0  0  0  0  0  0  0
   -5.6776    1.3357    1.3099 O   0  0  0  0  0  0  0  0  0  0  0  0
   -3.7384   -0.1873   -2.0321 C   0  0  0  0  0  0  0  0  0  0  0  0
   -2.4649    0.1543   -2.4951 C   0  0  0  0  0  0  0  0  0  0  0  0
    6.3147    0.5229    2.1833 H   0  0  0  0  0  0  0  0  0  0  0  0
    4.7839   -0.2687    2.7217 H   0  0  0  0  0  0  0  0  0  0  0  0
    4.7466    1.3380    1.8932 H   0  0  0  0  0  0  0  0  0  0  0  0
    5.5904    0.3091   -0.2165 H   0  0  0  0  0  0  0  0  0  0  0  0
    5.5805   -2.3451    1.3417 H   0  0  0  0  0  0  0  0  0  0  0  0
    5.8945   -2.1409   -0.4251 H   0  0  0  0  0  0  0  0  0  0  0  0
    7.0313   -1.4250    0.7743 H   0  0  0  0  0  0  0  0  0  0  0  0
    3.2812   -1.1309    1.0284 H   0  0  0  0  0  0  0  0  0  0  0  0
    2.7224    1.1202    0.7293 H   0  0  0  0  0  0  0  0  0  0  0  0
    3.5693    1.1548   -0.8667 H   0  0  0  0  0  0  0  0  0  0  0  0
    1.9388   -0.5194   -1.7729 H   0  0  0  0  0  0  0  0  0  0  0  0
    1.0947   -1.5750   -0.0984 H   0  0  0  0  0  0  0  0  0  0  0  0
    0.6628    2.0359   -0.5633 H   0  0  0  0  0  0  0  0  0  0  0  0
    1.5950    1.9084   -2.0755 H   0  0  0  0  0  0  0  0  0  0  0  0
   -1.0919    1.1408    0.4666 H   0  0  0  0  0  0  0  0  0  0  0  0
   -3.2963    0.5185    1.2714 H   0  0  0  0  0  0  0  0  0  0  0  0
   -5.8911   -1.1479   -0.7623 H   0  0  0  0  0  0  0  0  0  0  0  0
   -7.5498    0.0111    2.4033 H   0  0  0  0  0  0  0  0  0  0  0  0
   -8.1844   -0.0874    0.7113 H   0  0  0  0  0  0  0  0  0  0  0  0
   -7.2538   -1.4703    1.4168 H   0  0  0  0  0  0  0  0  0  0  0  0
   -4.4740   -0.5640   -2.7318 H   0  0  0  0  0  0  0  0  0  0  0  0
   -2.2312    0.0381   -3.5458 H   0  0  0  0  0  0  0  0  0  0  0  0
  1  2  1  0
  2  3  1  0
  2  4  1  0
  4  5  1  0
  5  6  1  0
  6  7  1  0
  6  8  1  0
  8  9  1  0
  9 10  1  0
 10 11  2  0
 11 12  1  0
 12 13  2  0
 13 14  1  0
 14 15  1  0
 15 16  1  0
 15 17  2  0
 13 18  1  0
 18 19  2  0
 19 10  1  0
  1 20  1  0
  1 21  1  0
  1 22  1  0
  2 23  1  0
  3 24  1  0
  3 25  1  0
  3 26  1  0
  4 27  1  0
  5 28  1  0
  5 29  1  0
  6 30  1  0
  7 31  1  0
  8 32  1  0
  8 33  1  0
 11 34  1  0
 12 35  1  0
 14 36  1  0
 16 37  1  0
 16 38  1  0
 16 39  1  0
 18 40  1  0
 19 41  1  0
M  END
$$$$
