
     RDKit          3D

 49 52  0  0  0  0  0  0  0  0999 V2000
   -0.9851    1.1555   -1.8708 C   0  0  0  0  0  0  0  0  0  0  0  0
   -2.1521    0.4060   -1.3165 C   0  0  0  0  0  0  0  0  0  0  0  0
   -2.2977   -0.9615   -1.1959 C   0  0  0  0  0  0  0  0  0  0  0  0
   -1.2986   -2.0187   -1.5665 C   0  0  0  0  0  0  0  0  0  0  0  0
   -0.7292   -2.7038   -0.3195 C   0  0  0  0  0  0  0  0  0  0  0  0
   -0.1362   -1.7567    0.5708 O   0  0  0  0  0  0  0  0  0  0  0  0
    1.0804   -1.0882    0.3610 C   0  0  0  0  0  0  0  0  0  0  0  0
    1.4310   -0.0646    1.2488 C   0  0  0  0  0  0  0  0  0  0  0  0
    2.6219    0.6467    1.0805 C   0  0  0  0  0  0  0  0  0  0  0  0
    3.4851    0.3404    0.0176 C   0  0  0  0  0  0  0  0  0  0  0  0
    4.7800    1.0916   -0.1585 C   0  0  0  0  0  0  0  0  0  0  0  0
    5.9841    0.2641    0.3218 C   0  0  0  0  0  0  0  0  0  0  0  0
    7.2693    1.0013    0.0979 C   0  0  0  0  0  0  0  0  0  0  0  0
    7.7290    1.3219   -1.0298 O   0  0  0  0  0  0  0  0  0  0  0  0
    7.9366    1.2851    1.3183 N   0  0  0  0  0  0  0  0  0  0  0  0
    7.1837    0.7622    2.3357 O   0  0  0  0  0  0  0  0  0  0  0  0
    6.0495    0.1525    1.8196 C   0  0  0  0  0  0  0  0  0  0  0  0
    5.2101   -0.4552    2.5344 O   0  0  0  0  0  0  0  0  0  0  0  0
    3.1443   -0.6944   -0.8665 C   0  0  0  0  0  0  0  0  0  0  0  0
    1.9527   -1.4055   -0.6980 C   0  0  0  0  0  0  0  0  0  0  0  0
   -3.4958   -1.2282   -0.6412 N   0  0  0  0  0  0  0  0  0  0  0  0
   -4.0333   -0.0021   -0.4499 C   0  0  0  0  0  0  0  0  0  0  0  0
   -3.2379    0.9679   -0.8490 O   0  0  0  0  0  0  0  0  0  0  0  0
   -5.3657    0.2256    0.1445 C   0  0  0  0  0  0  0  0  0  0  0  0
   -6.1636   -0.8582    0.5534 C   0  0  0  0  0  0  0  0  0  0  0  0
   -7.4240   -0.6336    1.1160 C   0  0  0  0  0  0  0  0  0  0  0  0
   -7.8983    0.6709    1.2753 C   0  0  0  0  0  0  0  0  0  0  0  0
   -7.1129    1.7536    0.8722 C   0  0  0  0  0  0  0  0  0  0  0  0
   -5.8517    1.5344    0.3091 C   0  0  0  0  0  0  0  0  0  0  0  0
   -0.7788    0.8175   -2.9076 H   0  0  0  0  0  0  0  0  0  0  0  0
   -1.2070    2.2430   -1.8852 H   0  0  0  0  0  0  0  0  0  0  0  0
   -0.0905    0.9807   -1.2398 H   0  0  0  0  0  0  0  0  0  0  0  0
   -1.8035   -2.7807   -2.1975 H   0  0  0  0  0  0  0  0  0  0  0  0
   -0.4781   -1.5806   -2.1707 H   0  0  0  0  0  0  0  0  0  0  0  0
   -1.5557   -3.2166    0.2172 H   0  0  0  0  0  0  0  0  0  0  0  0
    0.0052   -3.4868   -0.6036 H   0  0  0  0  0  0  0  0  0  0  0  0
    0.7717    0.1857    2.0702 H   0  0  0  0  0  0  0  0  0  0  0  0
    2.8714    1.4341    1.7810 H   0  0  0  0  0  0  0  0  0  0  0  0
    4.9070    1.3282   -1.2378 H   0  0  0  0  0  0  0  0  0  0  0  0
    4.7431    2.0646    0.3814 H   0  0  0  0  0  0  0  0  0  0  0  0
    6.0242   -0.7384   -0.1564 H   0  0  0  0  0  0  0  0  0  0  0  0
    8.8468    1.7819    1.4373 H   0  0  0  0  0  0  0  0  0  0  0  0
    3.8041   -0.9516   -1.6861 H   0  0  0  0  0  0  0  0  0  0  0  0
    1.7255   -2.1989   -1.3951 H   0  0  0  0  0  0  0  0  0  0  0  0
   -5.8145   -1.8768    0.4390 H   0  0  0  0  0  0  0  0  0  0  0  0
   -8.0334   -1.4717    1.4288 H   0  0  0  0  0  0  0  0  0  0  0  0
   -8.8741    0.8426    1.7110 H   0  0  0  0  0  0  0  0  0  0  0  0
   -7.4813    2.7638    0.9962 H   0  0  0  0  0  0  0  0  0  0  0  0
   -5.2577    2.3866    0.0029 H   0  0  0  0  0  0  0  0  0  0  0  0
  1  2  1  0
  2  3  2  0
  3  4  1  0
  4  5  1  0
  5  6  1  0
  6  7  1  0
  7  8  2  0
  8  9  1  0
  9 10  2  0
 10 11  1  0
 11 12  1  0
 12 13  1  0
 13 14  2  0
 13 15  1  0
 15 16  1  0
 16 17  1  0
 17 18  2  0
 10 19  1  0
 19 20  2  0
  3 21  1  0
 21 22  2  0
 22 23  1  0
 22 24  1  0
 24 25  2  0
 25 26  1  0
 26 27  2  0
 27 28  1  0
 28 29  2  0
 23  2  1  0
 29 24  1  0
 20  7  1  0
 17 12  1  0
  1 30  1  0
  1 31  1  0
  1 32  1  0
  4 33  1  0
  4 34  1  0
  5 35  1  0
  5 36  1  0
  8 37  1  0
  9 38  1  0
 11 39  1  0
 11 40  1  0
 12 41  1  0
 15 42  1  0
 19 43  1  0
 20 44  1  0
 25 45  1  0
 26 46  1  0
 27 47  1  0
 28 48  1  0
 29 49  1  0
M  END
$$$$
