
     RDKit          3D

 97 99  0  0  0  0  0  0  0  0999 V2000
  -12.7074   -0.2310    4.5068 N   0  0  0  0  0  0  0  0  0  0  0  0
  -12.2135   -1.0878    3.4772 C   0  0  0  0  0  0  0  0  0  0  0  0
  -11.0474   -0.7970    2.7784 C   0  0  0  0  0  0  0  0  0  0  0  0
  -10.2259    0.2643    2.8868 N   0  0  0  0  0  0  0  0  0  0  0  0
   -9.2862    0.0147    1.9331 C   0  0  0  0  0  0  0  0  0  0  0  0
   -9.4939   -1.1496    1.2629 N   0  0  0  0  0  0  0  0  0  0  0  0
   -8.7514   -1.6750    0.1149 C   0  0  2  0  0  0  0  0  0  0  0  0
   -7.3741   -1.4043    0.2805 O   0  0  0  0  0  0  0  0  0  0  0  0
   -6.9347   -0.6910   -0.8538 C   0  0  2  0  0  0  0  0  0  0  0  0
   -5.8889    0.3501   -0.4464 C   0  0  0  0  0  0  0  0  0  0  0  0
   -4.7652   -0.3107    0.0860 O   0  0  0  0  0  0  0  0  0  0  0  0
   -3.6052    0.8627    0.5202 P   0  0  0  0  0  5  0  0  0  0  0  0
   -2.2082    0.0754    1.0645 O   0  0  0  0  0  0  0  0  0  0  0  0
   -4.1513    1.7080    1.6496 O   0  0  0  0  0  0  0  0  0  0  0  0
   -3.2474    1.8779   -0.7996 O   0  0  0  0  0  0  0  0  0  0  0  0
   -2.3894    0.9534   -1.9440 P   0  0  0  0  0  5  0  0  0  0  0  0
   -3.1553   -0.5325   -2.2167 O   0  0  0  0  0  0  0  0  0  0  0  0
   -2.3541    1.7133   -3.2514 O   0  0  0  0  0  0  0  0  0  0  0  0
   -0.7943    0.6668   -1.4091 O   0  0  0  0  0  0  0  0  0  0  0  0
   -0.1671    1.9089   -1.1750 C   0  0  0  0  0  0  0  0  0  0  0  0
    1.3131    1.6959   -0.7574 C   0  0  0  0  0  0  0  0  0  0  0  0
    1.9576    3.0835   -0.5298 C   0  0  0  0  0  0  0  0  0  0  0  0
    1.3466    0.9130    0.5761 C   0  0  0  0  0  0  0  0  0  0  0  0
    2.0692    0.9046   -1.8779 C   0  0  1  0  0  0  0  0  0  0  0  0
    1.9819    1.5955   -3.1000 O   0  0  0  0  0  0  0  0  0  0  0  0
    3.5219    0.6543   -1.5431 C   0  0  0  0  0  0  0  0  0  0  0  0
    4.3915    1.5172   -1.8452 O   0  0  0  0  0  0  0  0  0  0  0  0
    3.9082   -0.5503   -0.8653 N   0  0  0  0  0  0  0  0  0  0  0  0
    5.2699   -0.7790   -0.3883 C   0  0  0  0  0  0  0  0  0  0  0  0
    5.5454    0.0643    0.8585 C   0  0  0  0  0  0  0  0  0  0  0  0
    6.9404   -0.1707    1.3524 C   0  0  0  0  0  0  0  0  0  0  0  0
    7.1413   -1.0093    2.2725 O   0  0  0  0  0  0  0  0  0  0  0  0
    8.0419    0.5216    0.7512 N   0  0  0  0  0  0  0  0  0  0  0  0
    9.4180    0.2902    1.1884 C   0  0  0  0  0  0  0  0  0  0  0  0
   10.3973    1.1414    0.3810 C   0  0  0  0  0  0  0  0  0  0  0  0
   12.1075    0.8561    0.9606 S   0  0  0  0  0  0  0  0  0  0  0  0
   12.5909   -0.1889   -0.4223 C   0  0  0  0  0  0  0  0  0  0  0  0
   13.0610    0.3282   -1.4234 O   0  0  0  0  0  0  0  0  0  0  0  0
   12.4311   -1.6828   -0.3548 C   0  0  0  0  0  0  0  0  0  0  0  0
   13.2812   -2.3208    0.7555 C   0  0  0  0  0  0  0  0  0  0  0  0
   14.7844   -2.3309    0.4400 C   0  0  0  0  0  0  0  0  0  0  0  0
   15.3620   -0.9966    0.5625 N   0  0  0  0  0  4  0  0  0  0  0  0
   15.4107   -0.3772    1.7896 O   0  0  0  0  0  1  0  0  0  0  0  0
   15.9011   -0.4522   -0.4227 O   0  0  0  0  0  0  0  0  0  0  0  0
   -8.1437   -0.0484   -1.5236 C   0  0  1  0  0  0  0  0  0  0  0  0
   -7.9275    0.0563   -2.9183 O   0  0  0  0  0  0  0  0  0  0  0  0
   -8.7990    1.3871   -3.5366 P   0  0  0  0  0  5  0  0  0  0  0  0
   -8.1358    2.8291   -2.9462 O   0  0  0  0  0  0  0  0  0  0  0  0
  -10.4317    1.2844   -3.0980 O   0  0  0  0  0  0  0  0  0  0  0  0
   -8.6918    1.3830   -5.0443 O   0  0  0  0  0  0  0  0  0  0  0  0
   -9.2473   -1.0263   -1.1833 C   0  0  1  0  0  0  0  0  0  0  0  0
   -9.4418   -1.9870   -2.1965 O   0  0  0  0  0  0  0  0  0  0  0  0
  -10.6171   -1.6332    1.8065 C   0  0  0  0  0  0  0  0  0  0  0  0
  -11.2840   -2.7622    1.4642 N   0  0  0  0  0  0  0  0  0  0  0  0
  -12.4306   -3.0600    2.1469 C   0  0  0  0  0  0  0  0  0  0  0  0
  -12.8851   -2.2297    3.1405 N   0  0  0  0  0  0  0  0  0  0  0  0
  -13.5877   -0.4733    5.0132 H   0  0  0  0  0  0  0  0  0  0  0  0
  -12.2002    0.6436    4.7681 H   0  0  0  0  0  0  0  0  0  0  0  0
   -8.4670    0.6895    1.7226 H   0  0  0  0  0  0  0  0  0  0  0  0
   -8.8877   -2.7786    0.0730 H   0  0  0  0  0  0  0  0  0  0  0  0
   -6.4575   -1.4131   -1.5557 H   0  0  0  0  0  0  0  0  0  0  0  0
   -6.3381    1.0331    0.3105 H   0  0  0  0  0  0  0  0  0  0  0  0
   -5.6090    0.9318   -1.3541 H   0  0  0  0  0  0  0  0  0  0  0  0
   -1.6601    0.7892    1.4770 H   0  0  0  0  0  0  0  0  0  0  0  0
   -2.5312   -1.0356   -2.7981 H   0  0  0  0  0  0  0  0  0  0  0  0
   -0.6976    2.4579   -0.3630 H   0  0  0  0  0  0  0  0  0  0  0  0
   -0.1919    2.5414   -2.0921 H   0  0  0  0  0  0  0  0  0  0  0  0
    1.9867    3.6670   -1.4747 H   0  0  0  0  0  0  0  0  0  0  0  0
    1.3766    3.6665    0.2174 H   0  0  0  0  0  0  0  0  0  0  0  0
    2.9943    2.9866   -0.1439 H   0  0  0  0  0  0  0  0  0  0  0  0
    0.7493    1.4368    1.3529 H   0  0  0  0  0  0  0  0  0  0  0  0
    0.9326   -0.1097    0.4456 H   0  0  0  0  0  0  0  0  0  0  0  0
    2.3839    0.8229    0.9615 H   0  0  0  0  0  0  0  0  0  0  0  0
    1.5734   -0.0875   -1.9961 H   0  0  0  0  0  0  0  0  0  0  0  0
    2.2016    0.9448   -3.8176 H   0  0  0  0  0  0  0  0  0  0  0  0
    3.1971   -1.3013   -0.7155 H   0  0  0  0  0  0  0  0  0  0  0  0
    5.3888   -1.8552   -0.1336 H   0  0  0  0  0  0  0  0  0  0  0  0
    5.9961   -0.5355   -1.1946 H   0  0  0  0  0  0  0  0  0  0  0  0
    5.4174    1.1433    0.6275 H   0  0  0  0  0  0  0  0  0  0  0  0
    4.8166   -0.2023    1.6549 H   0  0  0  0  0  0  0  0  0  0  0  0
    7.8453    1.1984   -0.0215 H   0  0  0  0  0  0  0  0  0  0  0  0
    9.6651   -0.7844    1.0599 H   0  0  0  0  0  0  0  0  0  0  0  0
    9.5079    0.5497    2.2657 H   0  0  0  0  0  0  0  0  0  0  0  0
   10.2908    0.9214   -0.7034 H   0  0  0  0  0  0  0  0  0  0  0  0
   10.1582    2.2149    0.5362 H   0  0  0  0  0  0  0  0  0  0  0  0
   12.6894   -2.1412   -1.3348 H   0  0  0  0  0  0  0  0  0  0  0  0
   11.3627   -1.9120   -0.1635 H   0  0  0  0  0  0  0  0  0  0  0  0
   13.0934   -1.8205    1.7302 H   0  0  0  0  0  0  0  0  0  0  0  0
   12.9520   -3.3766    0.8683 H   0  0  0  0  0  0  0  0  0  0  0  0
   14.9569   -2.7369   -0.5815 H   0  0  0  0  0  0  0  0  0  0  0  0
   15.2981   -3.0061    1.1575 H   0  0  0  0  0  0  0  0  0  0  0  0
   -8.3536    0.9274   -1.0210 H   0  0  0  0  0  0  0  0  0  0  0  0
   -8.6973    3.0710   -2.1672 H   0  0  0  0  0  0  0  0  0  0  0  0
  -10.7506    0.4398   -3.5056 H   0  0  0  0  0  0  0  0  0  0  0  0
  -10.2064   -0.4849   -1.0279 H   0  0  0  0  0  0  0  0  0  0  0  0
   -8.5911   -2.4843   -2.3214 H   0  0  0  0  0  0  0  0  0  0  0  0
  -12.9846   -3.9552    1.9005 H   0  0  0  0  0  0  0  0  0  0  0  0
  1  2  1  0
  2  3  2  0
  3  4  1  0
  4  5  2  0
  5  6  1  0
  6  7  1  0
  7  8  1  0
  8  9  1  0
  9 10  1  0
 10 11  1  0
 11 12  1  0
 12 13  1  0
 12 14  2  0
 12 15  1  0
 15 16  1  0
 16 17  1  0
 16 18  2  0
 16 19  1  0
 19 20  1  0
 20 21  1  0
 21 22  1  0
 21 23  1  0
 21 24  1  0
 24 25  1  0
 24 26  1  0
 26 27  2  0
 26 28  1  0
 28 29  1  0
 29 30  1  0
 30 31  1  0
 31 32  2  0
 31 33  1  0
 33 34  1  0
 34 35  1  0
 35 36  1  0
 36 37  1  0
 37 38  2  0
 37 39  1  0
 39 40  1  0
 40 41  1  0
 41 42  1  0
 42 43  1  0
 42 44  2  0
  9 45  1  0
 45 46  1  0
 46 47  1  0
 47 48  1  0
 47 49  1  0
 47 50  2  0
 45 51  1  0
 51 52  1  0
  6 53  1  0
 53 54  2  0
 54 55  1  0
 55 56  2  0
 56  2  1  0
 53  3  1  0
 51  7  1  0
  1 57  1  0
  1 58  1  0
  5 59  1  0
  7 60  1  6
  9 61  1  6
 10 62  1  0
 10 63  1  0
 13 64  1  0
 17 65  1  0
 20 66  1  0
 20 67  1  0
 22 68  1  0
 22 69  1  0
 22 70  1  0
 23 71  1  0
 23 72  1  0
 23 73  1  0
 24 74  1  6
 25 75  1  0
 28 76  1  0
 29 77  1  0
 29 78  1  0
 30 79  1  0
 30 80  1  0
 33 81  1  0
 34 82  1  0
 34 83  1  0
 35 84  1  0
 35 85  1  0
 39 86  1  0
 39 87  1  0
 40 88  1  0
 40 89  1  0
 41 90  1  0
 41 91  1  0
 45 92  1  1
 48 93  1  0
 49 94  1  0
 51 95  1  1
 52 96  1  0
 55 97  1  0
M  CHG  2  42   1  43  -1
M  END
$$$$
