
     RDKit          3D

 29 29  0  0  0  0  0  0  0  0999 V2000
   -2.7088    1.4481   -0.0461 N   0  0  0  0  0  0  0  0  0  0  0  0
   -2.9215    0.0077    0.1186 C   0  0  1  0  0  0  0  0  0  0  0  0
   -1.9269   -0.5782    1.1389 C   0  0  0  0  0  0  0  0  0  0  0  0
   -0.5092   -0.5422    0.6265 C   0  0  0  0  0  0  0  0  0  0  0  0
   -0.0671   -1.5041   -0.2940 C   0  0  0  0  0  0  0  0  0  0  0  0
    1.2394   -1.4597   -0.7878 C   0  0  0  0  0  0  0  0  0  0  0  0
    2.1239   -0.4551   -0.3777 C   0  0  0  0  0  0  0  0  0  0  0  0
    3.4221   -0.4630   -0.9090 O   0  0  0  0  0  0  0  0  0  0  0  0
    4.6447    0.6885   -0.5267 P   0  0  0  0  0  5  0  0  0  0  0  0
    4.1255    2.2396   -0.9601 O   0  0  0  0  0  0  0  0  0  0  0  0
    4.9723    0.6458    1.1328 O   0  0  0  0  0  0  0  0  0  0  0  0
    5.9033    0.3510   -1.2930 O   0  0  0  0  0  0  0  0  0  0  0  0
    1.6783    0.5148    0.5420 C   0  0  0  0  0  0  0  0  0  0  0  0
    0.3714    0.4705    1.0366 C   0  0  0  0  0  0  0  0  0  0  0  0
   -4.3274   -0.2494    0.5844 C   0  0  0  0  0  0  0  0  0  0  0  0
   -5.1002   -1.2170   -0.0501 O   0  0  0  0  0  0  0  0  0  0  0  0
   -4.7996    0.3882    1.5643 O   0  0  0  0  0  0  0  0  0  0  0  0
   -3.4252    1.8129   -0.7160 H   0  0  0  0  0  0  0  0  0  0  0  0
   -1.7870    1.5964   -0.5168 H   0  0  0  0  0  0  0  0  0  0  0  0
   -2.7813   -0.4993   -0.8637 H   0  0  0  0  0  0  0  0  0  0  0  0
   -2.0038   -0.0231    2.1004 H   0  0  0  0  0  0  0  0  0  0  0  0
   -2.1970   -1.6359    1.3557 H   0  0  0  0  0  0  0  0  0  0  0  0
   -0.7354   -2.2874   -0.6300 H   0  0  0  0  0  0  0  0  0  0  0  0
    1.5669   -2.2100   -1.4963 H   0  0  0  0  0  0  0  0  0  0  0  0
    3.8038    2.1465   -1.8921 H   0  0  0  0  0  0  0  0  0  0  0  0
    5.1121   -0.3131    1.3375 H   0  0  0  0  0  0  0  0  0  0  0  0
    2.3272    1.3088    0.8816 H   0  0  0  0  0  0  0  0  0  0  0  0
    0.0449    1.2294    1.7369 H   0  0  0  0  0  0  0  0  0  0  0  0
   -6.0456   -1.4108    0.2578 H   0  0  0  0  0  0  0  0  0  0  0  0
  1  2  1  0
  2  3  1  0
  3  4  1  0
  4  5  2  0
  5  6  1  0
  6  7  2  0
  7  8  1  0
  8  9  1  0
  9 10  1  0
  9 11  1  0
  9 12  2  0
  7 13  1  0
 13 14  2  0
  2 15  1  0
 15 16  1  0
 15 17  2  0
 14  4  1  0
  1 18  1  0
  1 19  1  0
  2 20  1  6
  3 21  1  0
  3 22  1  0
  5 23  1  0
  6 24  1  0
 10 25  1  0
 11 26  1  0
 13 27  1  0
 14 28  1  0
 16 29  1  0
M  END
$$$$
