
     RDKit          3D

 51 54  0  0  0  0  0  0  0  0999 V2000
    3.9554   -2.3168   -0.9085 C   0  0  0  0  0  0  0  0  0  0  0  0
    3.8268   -2.1150    0.6046 C   0  0  0  0  0  0  0  0  0  0  0  0
    2.9935   -0.8802    1.0153 C   0  0  0  0  0  0  0  0  0  0  0  0
    1.5716   -1.0603    0.6943 N   0  0  0  0  0  0  0  0  0  0  0  0
    0.5599   -0.1721    1.1934 C   0  0  0  0  0  0  0  0  0  0  0  0
    0.8792    0.8220    1.9007 O   0  0  0  0  0  0  0  0  0  0  0  0
   -0.8598   -0.3845    0.8387 C   0  0  0  0  0  0  0  0  0  0  0  0
   -1.5435    0.6354    0.1483 C   0  0  0  0  0  0  0  0  0  0  0  0
   -0.8509    1.7999   -0.2008 O   0  0  0  0  0  0  0  0  0  0  0  0
   -2.8936    0.4404   -0.2185 C   0  0  0  0  0  0  0  0  0  0  0  0
   -3.4953   -0.7480    0.0490 N   0  0  0  0  0  0  0  0  0  0  0  0
   -2.8639   -1.7577    0.6983 C   0  0  0  0  0  0  0  0  0  0  0  0
   -3.5528   -2.9489    0.9544 C   0  0  0  0  0  0  0  0  0  0  0  0
   -2.9301   -3.9829    1.6554 C   0  0  0  0  0  0  0  0  0  0  0  0
   -1.6204   -3.8285    2.1125 C   0  0  0  0  0  0  0  0  0  0  0  0
   -0.9214   -2.6444    1.8609 C   0  0  0  0  0  0  0  0  0  0  0  0
   -1.5275   -1.5975    1.1330 C   0  0  0  0  0  0  0  0  0  0  0  0
   -3.6927    1.4893   -0.8839 C   0  0  0  0  0  0  0  0  0  0  0  0
   -3.8144    2.7694   -0.3154 C   0  0  0  0  0  0  0  0  0  0  0  0
   -4.6041    3.7431   -0.9347 C   0  0  0  0  0  0  0  0  0  0  0  0
   -5.2893    3.4425   -2.1151 C   0  0  0  0  0  0  0  0  0  0  0  0
   -5.1910    2.1657   -2.6745 C   0  0  0  0  0  0  0  0  0  0  0  0
   -4.4023    1.1890   -2.0583 C   0  0  0  0  0  0  0  0  0  0  0  0
    3.5443    0.3986    0.4093 C   0  0  0  0  0  0  0  0  0  0  0  0
    3.0859    0.8786   -0.8337 C   0  0  0  0  0  0  0  0  0  0  0  0
    3.6242    2.0460   -1.3827 C   0  0  0  0  0  0  0  0  0  0  0  0
    4.6299    2.7397   -0.7058 C   0  0  0  0  0  0  0  0  0  0  0  0
    5.1028    2.2645    0.5197 C   0  0  0  0  0  0  0  0  0  0  0  0
    4.5675    1.0978    1.0736 C   0  0  0  0  0  0  0  0  0  0  0  0
    2.9600   -2.3586   -1.3958 H   0  0  0  0  0  0  0  0  0  0  0  0
    4.4810   -3.2745   -1.1069 H   0  0  0  0  0  0  0  0  0  0  0  0
    4.5531   -1.4987   -1.3617 H   0  0  0  0  0  0  0  0  0  0  0  0
    3.3653   -3.0239    1.0487 H   0  0  0  0  0  0  0  0  0  0  0  0
    4.8481   -2.0225    1.0347 H   0  0  0  0  0  0  0  0  0  0  0  0
    3.0721   -0.8065    2.1236 H   0  0  0  0  0  0  0  0  0  0  0  0
    1.2690   -1.8675    0.1038 H   0  0  0  0  0  0  0  0  0  0  0  0
   -1.2337    2.5117   -0.8089 H   0  0  0  0  0  0  0  0  0  0  0  0
   -4.5748   -3.0718    0.6174 H   0  0  0  0  0  0  0  0  0  0  0  0
   -3.4671   -4.9014    1.8541 H   0  0  0  0  0  0  0  0  0  0  0  0
   -1.1461   -4.6273    2.6680 H   0  0  0  0  0  0  0  0  0  0  0  0
    0.0835   -2.5550    2.2504 H   0  0  0  0  0  0  0  0  0  0  0  0
   -3.3046    3.0101    0.6094 H   0  0  0  0  0  0  0  0  0  0  0  0
   -4.6898    4.7289   -0.4962 H   0  0  0  0  0  0  0  0  0  0  0  0
   -5.9013    4.1968   -2.5925 H   0  0  0  0  0  0  0  0  0  0  0  0
   -5.7283    1.9316   -3.5845 H   0  0  0  0  0  0  0  0  0  0  0  0
   -4.3378    0.2023   -2.5008 H   0  0  0  0  0  0  0  0  0  0  0  0
    2.3159    0.3494   -1.3806 H   0  0  0  0  0  0  0  0  0  0  0  0
    3.2638    2.4109   -2.3358 H   0  0  0  0  0  0  0  0  0  0  0  0
    5.0464    3.6426   -1.1332 H   0  0  0  0  0  0  0  0  0  0  0  0
    5.8870    2.7992    1.0400 H   0  0  0  0  0  0  0  0  0  0  0  0
    4.9506    0.7389    2.0208 H   0  0  0  0  0  0  0  0  0  0  0  0
  1  2  1  0
  2  3  1  0
  3  4  1  0
  4  5  1  0
  5  6  2  0
  5  7  1  0
  7  8  2  0
  8  9  1  0
  8 10  1  0
 10 11  2  0
 11 12  1  0
 12 13  2  0
 13 14  1  0
 14 15  2  0
 15 16  1  0
 16 17  2  0
 10 18  1  0
 18 19  2  0
 19 20  1  0
 20 21  2  0
 21 22  1  0
 22 23  2  0
  3 24  1  0
 24 25  2  0
 25 26  1  0
 26 27  2  0
 27 28  1  0
 28 29  2  0
 17  7  1  0
 23 18  1  0
 29 24  1  0
 17 12  1  0
  1 30  1  0
  1 31  1  0
  1 32  1  0
  2 33  1  0
  2 34  1  0
  3 35  1  0
  4 36  1  0
  9 37  1  0
 13 38  1  0
 14 39  1  0
 15 40  1  0
 16 41  1  0
 19 42  1  0
 20 43  1  0
 21 44  1  0
 22 45  1  0
 23 46  1  0
 25 47  1  0
 26 48  1  0
 27 49  1  0
 28 50  1  0
 29 51  1  0
M  END
$$$$
