
     RDKit          3D

 54 56  0  0  0  0  0  0  0  0999 V2000
   -1.3019    6.3645   -0.4140 C   0  0  0  0  0  0  0  0  0  0  0  0
   -1.1952    4.9961    0.0984 N   0  0  0  0  0  0  0  0  0  0  0  0
   -0.5821    4.7461    1.4077 C   0  0  0  0  0  0  0  0  0  0  0  0
   -1.8351    3.9255   -0.6253 C   0  0  0  0  0  0  0  0  0  0  0  0
   -2.8212    4.1807   -1.3696 O   0  0  0  0  0  0  0  0  0  0  0  0
   -1.3733    2.5256   -0.5120 C   0  0  0  0  0  0  0  0  0  0  0  0
   -2.3082    1.4849   -0.4106 C   0  0  0  0  0  0  0  0  0  0  0  0
   -1.8865    0.1463   -0.3310 C   0  0  0  0  0  0  0  0  0  0  0  0
   -0.5102   -0.1395   -0.3561 C   0  0  0  0  0  0  0  0  0  0  0  0
    0.4355    0.8951   -0.4526 C   0  0  0  0  0  0  0  0  0  0  0  0
    1.8444    0.6165   -0.5156 N   0  0  0  0  0  0  0  0  0  0  0  0
    2.4967   -0.3898    0.2823 C   0  0  0  0  0  0  0  0  0  0  0  0
    1.8424   -1.0194    1.1581 O   0  0  0  0  0  0  0  0  0  0  0  0
    3.9354   -0.7014    0.1028 C   0  0  0  0  0  0  0  0  0  0  0  0
    4.4074   -1.9959    0.3835 C   0  0  0  0  0  0  0  0  0  0  0  0
    5.7601   -2.3101    0.2244 C   0  0  0  0  0  0  0  0  0  0  0  0
    6.6693   -1.3299   -0.1966 C   0  0  0  0  0  0  0  0  0  0  0  0
    8.1138   -1.6770   -0.4039 C   0  0  0  0  0  0  0  0  0  0  0  0
    6.2047   -0.0382   -0.4813 C   0  0  0  0  0  0  0  0  0  0  0  0
    4.8517    0.2776   -0.3240 C   0  0  0  0  0  0  0  0  0  0  0  0
   -0.0056    2.2203   -0.5587 C   0  0  0  0  0  0  0  0  0  0  0  0
   -2.8821   -0.9512   -0.2299 C   0  0  0  0  0  0  0  0  0  0  0  0
   -4.0074   -0.8202    0.6012 C   0  0  0  0  0  0  0  0  0  0  0  0
   -4.9438   -1.8532    0.6969 C   0  0  0  0  0  0  0  0  0  0  0  0
   -4.7735   -3.0438   -0.0305 C   0  0  0  0  0  0  0  0  0  0  0  0
   -3.6541   -3.1695   -0.8719 C   0  0  0  0  0  0  0  0  0  0  0  0
   -2.7177   -2.1360   -0.9675 C   0  0  0  0  0  0  0  0  0  0  0  0
   -5.7795   -4.1285    0.0790 C   0  0  0  0  0  0  0  0  0  0  0  0
   -6.9524   -3.8523    0.4513 O   0  0  0  0  0  0  0  0  0  0  0  0
   -5.4442   -5.4912   -0.2113 N   0  0  0  0  0  0  0  0  0  0  0  0
   -6.4060   -6.4451   -0.2205 O   0  0  0  0  0  0  0  0  0  0  0  0
   -0.9073    6.4056   -1.4513 H   0  0  0  0  0  0  0  0  0  0  0  0
   -2.3649    6.6855   -0.4138 H   0  0  0  0  0  0  0  0  0  0  0  0
   -0.7162    7.0781    0.2032 H   0  0  0  0  0  0  0  0  0  0  0  0
   -0.4293    5.6912    1.9701 H   0  0  0  0  0  0  0  0  0  0  0  0
   -1.2432    4.0939    2.0172 H   0  0  0  0  0  0  0  0  0  0  0  0
    0.4046    4.2573    1.2833 H   0  0  0  0  0  0  0  0  0  0  0  0
   -3.3662    1.7190   -0.4066 H   0  0  0  0  0  0  0  0  0  0  0  0
   -0.1771   -1.1681   -0.3162 H   0  0  0  0  0  0  0  0  0  0  0  0
    2.4175    1.2235   -1.1415 H   0  0  0  0  0  0  0  0  0  0  0  0
    3.7257   -2.7712    0.7114 H   0  0  0  0  0  0  0  0  0  0  0  0
    6.0979   -3.3183    0.4304 H   0  0  0  0  0  0  0  0  0  0  0  0
    8.2630   -2.0283   -1.4462 H   0  0  0  0  0  0  0  0  0  0  0  0
    8.4288   -2.4789    0.2974 H   0  0  0  0  0  0  0  0  0  0  0  0
    8.7595   -0.7911   -0.2241 H   0  0  0  0  0  0  0  0  0  0  0  0
    6.8919    0.7285   -0.8174 H   0  0  0  0  0  0  0  0  0  0  0  0
    4.5382    1.2949   -0.5126 H   0  0  0  0  0  0  0  0  0  0  0  0
    0.7220    3.0122   -0.6884 H   0  0  0  0  0  0  0  0  0  0  0  0
   -4.1548    0.0751    1.1923 H   0  0  0  0  0  0  0  0  0  0  0  0
   -5.7959   -1.7254    1.3531 H   0  0  0  0  0  0  0  0  0  0  0  0
   -3.5095   -4.0511   -1.4812 H   0  0  0  0  0  0  0  0  0  0  0  0
   -1.8760   -2.2546   -1.6383 H   0  0  0  0  0  0  0  0  0  0  0  0
   -4.4562   -5.7770   -0.3883 H   0  0  0  0  0  0  0  0  0  0  0  0
   -6.4337   -6.7878    0.7093 H   0  0  0  0  0  0  0  0  0  0  0  0
  1  2  1  0
  2  3  1  0
  2  4  1  0
  4  5  2  0
  4  6  1  0
  6  7  2  0
  7  8  1  0
  8  9  2  0
  9 10  1  0
 10 11  1  0
 11 12  1  0
 12 13  2  0
 12 14  1  0
 14 15  2  0
 15 16  1  0
 16 17  2  0
 17 18  1  0
 17 19  1  0
 19 20  2  0
 10 21  2  0
  8 22  1  0
 22 23  2  0
 23 24  1  0
 24 25  2  0
 25 26  1  0
 26 27  2  0
 25 28  1  0
 28 29  2  0
 28 30  1  0
 30 31  1  0
 21  6  1  0
 27 22  1  0
 20 14  1  0
  1 32  1  0
  1 33  1  0
  1 34  1  0
  3 35  1  0
  3 36  1  0
  3 37  1  0
  7 38  1  0
  9 39  1  0
 11 40  1  0
 15 41  1  0
 16 42  1  0
 18 43  1  0
 18 44  1  0
 18 45  1  0
 19 46  1  0
 20 47  1  0
 21 48  1  0
 23 49  1  0
 24 50  1  0
 26 51  1  0
 27 52  1  0
 30 53  1  0
 31 54  1  0
M  END
$$$$
