
     RDKit          3D

 16 17  0  0  0  0  0  0  0  0999 V2000
   -1.8382   -1.6860    0.3743 N   0  0  0  0  0  0  0  0  0  0  0  0
   -1.2139   -0.4014    0.3476 C   0  0  0  0  0  0  0  0  0  0  0  0
   -1.9084    0.7094    0.7357 N   0  0  0  0  0  0  0  0  0  0  0  0
   -1.3355    1.9549    0.7207 C   0  0  0  0  0  0  0  0  0  0  0  0
   -0.0416    2.1181    0.3128 N   0  0  0  0  0  0  0  0  0  0  0  0
    0.6511    1.0203   -0.0729 C   0  0  0  0  0  0  0  0  0  0  0  0
    0.1057   -0.2256   -0.0670 C   0  0  0  0  0  0  0  0  0  0  0  0
    0.9995   -1.1351   -0.4931 N   0  0  0  0  0  0  0  0  0  0  0  0
    2.1271   -0.4357   -0.7699 C   0  0  0  0  0  0  0  0  0  0  0  0
    1.9475    0.9233   -0.5183 C   0  0  0  0  0  0  0  0  0  0  0  0
   -1.3275   -2.5478    0.0825 H   0  0  0  0  0  0  0  0  0  0  0  0
   -2.8288   -1.7778    0.6912 H   0  0  0  0  0  0  0  0  0  0  0  0
   -1.9119    2.8144    1.0339 H   0  0  0  0  0  0  0  0  0  0  0  0
    0.8680   -2.1654   -0.5947 H   0  0  0  0  0  0  0  0  0  0  0  0
    3.0395   -0.8865   -1.1374 H   0  0  0  0  0  0  0  0  0  0  0  0
    2.6672    1.7210   -0.6454 H   0  0  0  0  0  0  0  0  0  0  0  0
  1  2  1  0
  2  3  2  0
  3  4  1  0
  4  5  2  0
  5  6  1  0
  6  7  2  0
  7  8  1  0
  8  9  1  0
  9 10  2  0
  7  2  1  0
 10  6  1  0
  1 11  1  0
  1 12  1  0
  4 13  1  0
  8 14  1  0
  9 15  1  0
 10 16  1  0
M  END
$$$$
