
     RDKit          3D

 65 67  0  0  0  0  0  0  0  0999 V2000
    1.3241    1.6535    2.1514 C   0  0  2  0  0  0  0  0  0  0  0  0
    2.3664    0.7920    2.8674 C   0  0  0  0  0  0  0  0  0  0  0  0
    1.6262   -0.4478    3.3648 C   0  0  0  0  0  0  0  0  0  0  0  0
    0.1412   -0.1054    3.3273 C   0  0  0  0  0  0  0  0  0  0  0  0
    0.0298    1.1216    2.5532 N   0  0  0  0  0  0  0  0  0  0  0  0
   -1.2086    1.8142    2.2970 C   0  0  0  0  0  0  0  0  0  0  0  0
   -1.1791    2.9790    1.8139 O   0  0  0  0  0  0  0  0  0  0  0  0
   -2.5454    1.2005    2.6132 C   0  0  0  0  0  0  0  0  0  0  0  0
   -3.4823    1.4437    1.5002 N   0  0  0  0  0  0  0  0  0  0  0  0
   -3.6803    0.3019    0.5789 C   0  0  0  0  0  0  0  0  0  0  0  0
   -4.4177   -0.8852    1.2670 C   0  0  0  0  0  0  0  0  0  0  0  0
   -5.8104   -1.1858    0.6818 C   0  0  0  0  0  0  0  0  0  0  0  0
   -5.9066   -1.3085   -0.8532 C   0  0  0  0  0  0  0  0  0  0  0  0
   -4.8193   -2.1796   -1.5084 C   0  0  0  0  0  0  0  0  0  0  0  0
   -3.5954   -1.3804   -2.0161 C   0  0  0  0  0  0  0  0  0  0  0  0
   -2.4172   -1.3511   -1.0251 C   0  0  0  0  0  0  0  0  0  0  0  0
   -2.3532   -0.1122   -0.1080 C   0  0  0  0  0  0  0  0  0  0  0  0
    1.4773    1.5849    0.6537 C   0  0  0  0  0  0  0  0  0  0  0  0
    1.8360    2.6167    0.0242 O   0  0  0  0  0  0  0  0  0  0  0  0
    1.2328    0.3583   -0.0518 N   0  0  0  0  0  0  0  0  0  0  0  0
    1.4279    0.2317   -1.4933 C   0  0  0  0  0  0  0  0  0  0  0  0
    2.8963    0.2310   -1.8192 C   0  0  0  0  0  0  0  0  0  0  0  0
    3.4830    1.3197   -2.4807 C   0  0  0  0  0  0  0  0  0  0  0  0
    4.8532    1.3227   -2.7572 C   0  0  0  0  0  0  0  0  0  0  0  0
    5.6607    0.2371   -2.3764 C   0  0  0  0  0  0  0  0  0  0  0  0
    5.0692   -0.8497   -1.7075 C   0  0  0  0  0  0  0  0  0  0  0  0
    3.6992   -0.8511   -1.4308 C   0  0  0  0  0  0  0  0  0  0  0  0
    7.1163    0.2494   -2.6682 C   0  0  0  0  0  0  0  0  0  0  0  0
    7.8548    1.4718   -2.5948 N   0  0  0  0  0  0  0  0  0  0  0  0
    7.7388   -0.8387   -3.0012 N   0  0  0  0  0  0  0  0  0  0  0  0
    1.4195    2.7081    2.4956 H   0  0  0  0  0  0  0  0  0  0  0  0
    2.7667    1.3509    3.7420 H   0  0  0  0  0  0  0  0  0  0  0  0
    3.2215    0.5127    2.2119 H   0  0  0  0  0  0  0  0  0  0  0  0
    1.9491   -0.7220    4.3927 H   0  0  0  0  0  0  0  0  0  0  0  0
    1.8332   -1.3024    2.6837 H   0  0  0  0  0  0  0  0  0  0  0  0
   -0.2457    0.0641    4.3554 H   0  0  0  0  0  0  0  0  0  0  0  0
   -0.4220   -0.9286    2.8379 H   0  0  0  0  0  0  0  0  0  0  0  0
   -2.4563    0.1210    2.8453 H   0  0  0  0  0  0  0  0  0  0  0  0
   -2.9266    1.6913    3.5355 H   0  0  0  0  0  0  0  0  0  0  0  0
   -4.4143    1.7160    1.8939 H   0  0  0  0  0  0  0  0  0  0  0  0
   -4.3163    0.7049   -0.2325 H   0  0  0  0  0  0  0  0  0  0  0  0
   -3.8077   -1.8104    1.2529 H   0  0  0  0  0  0  0  0  0  0  0  0
   -4.5718   -0.6691    2.3460 H   0  0  0  0  0  0  0  0  0  0  0  0
   -6.1742   -2.1339    1.1353 H   0  0  0  0  0  0  0  0  0  0  0  0
   -6.5107   -0.3857    1.0068 H   0  0  0  0  0  0  0  0  0  0  0  0
   -5.9554   -0.3064   -1.3287 H   0  0  0  0  0  0  0  0  0  0  0  0
   -6.8930   -1.7736   -1.0726 H   0  0  0  0  0  0  0  0  0  0  0  0
   -5.2837   -2.6613   -2.3975 H   0  0  0  0  0  0  0  0  0  0  0  0
   -4.5221   -3.0146   -0.8379 H   0  0  0  0  0  0  0  0  0  0  0  0
   -3.2320   -1.8938   -2.9340 H   0  0  0  0  0  0  0  0  0  0  0  0
   -3.8719   -0.3543   -2.3404 H   0  0  0  0  0  0  0  0  0  0  0  0
   -1.4754   -1.3573   -1.6164 H   0  0  0  0  0  0  0  0  0  0  0  0
   -2.3809   -2.2840   -0.4240 H   0  0  0  0  0  0  0  0  0  0  0  0
   -1.9819    0.7521   -0.7018 H   0  0  0  0  0  0  0  0  0  0  0  0
   -1.5839   -0.3336    0.6570 H   0  0  0  0  0  0  0  0  0  0  0  0
    0.9119   -0.4830    0.4767 H   0  0  0  0  0  0  0  0  0  0  0  0
    0.8901    1.0510   -2.0184 H   0  0  0  0  0  0  0  0  0  0  0  0
    0.9845   -0.7260   -1.8416 H   0  0  0  0  0  0  0  0  0  0  0  0
    2.8810    2.1676   -2.7832 H   0  0  0  0  0  0  0  0  0  0  0  0
    5.2770    2.1679   -3.2846 H   0  0  0  0  0  0  0  0  0  0  0  0
    5.6679   -1.6890   -1.3772 H   0  0  0  0  0  0  0  0  0  0  0  0
    3.2641   -1.6926   -0.9055 H   0  0  0  0  0  0  0  0  0  0  0  0
    8.8697    1.4899   -2.8405 H   0  0  0  0  0  0  0  0  0  0  0  0
    7.4134    2.3508   -2.2451 H   0  0  0  0  0  0  0  0  0  0  0  0
    7.2587   -1.7613   -3.0943 H   0  0  0  0  0  0  0  0  0  0  0  0
  1  2  1  0
  2  3  1  0
  3  4  1  0
  4  5  1  0
  5  6  1  0
  6  7  2  0
  6  8  1  0
  8  9  1  0
  9 10  1  0
 10 11  1  0
 11 12  1  0
 12 13  1  0
 13 14  1  0
 14 15  1  0
 15 16  1  0
 16 17  1  0
  1 18  1  0
 18 19  2  0
 18 20  1  0
 20 21  1  0
 21 22  1  0
 22 23  2  0
 23 24  1  0
 24 25  2  0
 25 26  1  0
 26 27  2  0
 25 28  1  0
 28 29  1  0
 28 30  2  3
  5  1  1  0
 17 10  1  0
 27 22  1  0
  1 31  1  1
  2 32  1  0
  2 33  1  0
  3 34  1  0
  3 35  1  0
  4 36  1  0
  4 37  1  0
  8 38  1  0
  8 39  1  0
  9 40  1  0
 10 41  1  0
 11 42  1  0
 11 43  1  0
 12 44  1  0
 12 45  1  0
 13 46  1  0
 13 47  1  0
 14 48  1  0
 14 49  1  0
 15 50  1  0
 15 51  1  0
 16 52  1  0
 16 53  1  0
 17 54  1  0
 17 55  1  0
 20 56  1  0
 21 57  1  0
 21 58  1  0
 23 59  1  0
 24 60  1  0
 26 61  1  0
 27 62  1  0
 29 63  1  0
 29 64  1  0
 30 65  1  0
M  END
$$$$
