
     RDKit          3D

 77 80  0  0  0  0  0  0  0  0999 V2000
   -2.1039    7.0771   -1.5653 C   0  0  0  0  0  0  0  0  0  0  0  0
   -1.0497    6.3220   -0.9766 O   0  0  0  0  0  0  0  0  0  0  0  0
   -1.2135    5.0892   -0.3228 C   0  0  0  0  0  0  0  0  0  0  0  0
   -2.4844    4.4932   -0.2001 C   0  0  0  0  0  0  0  0  0  0  0  0
   -2.6362    3.2636    0.4393 C   0  0  0  0  0  0  0  0  0  0  0  0
   -1.5253    2.6017    0.9739 C   0  0  0  0  0  0  0  0  0  0  0  0
   -1.6787    1.2446    1.6149 C   0  0  0  0  0  0  0  0  0  0  0  0
   -1.2563    0.1718    0.6999 N   0  0  0  0  0  0  0  0  0  0  0  0
   -1.9470    0.0244   -0.6013 C   0  0  1  0  0  0  0  0  0  0  0  0
   -1.0499    0.4898   -1.7531 C   0  0  0  0  0  0  0  0  0  0  0  0
   -2.4927   -1.3734   -0.7891 C   0  0  0  0  0  0  0  0  0  0  0  0
   -3.4499   -1.8839    0.0137 N   0  0  0  0  0  0  0  0  0  0  0  0
   -3.6422   -3.1377   -0.4468 C   0  0  0  0  0  0  0  0  0  0  0  0
   -2.7983   -3.3631   -1.5187 C   0  0  0  0  0  0  0  0  0  0  0  0
   -2.0793   -2.2503   -1.7283 N   0  0  0  0  0  0  0  0  0  0  0  0
   -4.6122   -4.0900    0.1470 C   0  0  0  0  0  0  0  0  0  0  0  0
   -4.7916   -5.3819   -0.3855 C   0  0  0  0  0  0  0  0  0  0  0  0
   -5.7110   -6.2641    0.1910 C   0  0  0  0  0  0  0  0  0  0  0  0
   -6.4601   -5.8704    1.3015 C   0  0  0  0  0  0  0  0  0  0  0  0
   -6.2919   -4.5928    1.8386 C   0  0  0  0  0  0  0  0  0  0  0  0
   -5.3745   -3.7062    1.2667 C   0  0  0  0  0  0  0  0  0  0  0  0
   -0.5139   -0.9246    1.2745 C   0  0  0  0  0  0  0  0  0  0  0  0
   -1.0499   -1.6163    2.1822 O   0  0  0  0  0  0  0  0  0  0  0  0
    0.8952   -1.2583    0.8416 C   0  0  1  0  0  0  0  0  0  0  0  0
    0.8738   -1.9994   -0.4186 N   0  0  0  0  0  0  0  0  0  0  0  0
    1.7495    0.0255    0.7348 C   0  0  0  0  0  0  0  0  0  0  0  0
    3.2353   -0.2644    0.5530 C   0  0  0  0  0  0  0  0  0  0  0  0
    4.0505   -0.5684    1.6793 C   0  0  0  0  0  0  0  0  0  0  0  0
    3.5348   -0.4640    3.0958 C   0  0  0  0  0  0  0  0  0  0  0  0
    5.4024   -0.8962    1.4927 C   0  0  0  0  0  0  0  0  0  0  0  0
    5.9768   -0.9164    0.2168 C   0  0  0  0  0  0  0  0  0  0  0  0
    5.1829   -0.5937   -0.8900 C   0  0  0  0  0  0  0  0  0  0  0  0
    3.8286   -0.2539   -0.7409 C   0  0  0  0  0  0  0  0  0  0  0  0
    3.0599    0.1557   -1.9745 C   0  0  0  0  0  0  0  0  0  0  0  0
    7.4071   -1.2779    0.0558 C   0  0  0  0  0  0  0  0  0  0  0  0
    8.1706   -0.8268   -1.0663 N   0  0  0  0  0  0  0  0  0  0  0  0
    7.9732   -1.9870    0.9312 O   0  0  0  0  0  0  0  0  0  0  0  0
   -0.2595    3.1924    0.8684 C   0  0  0  0  0  0  0  0  0  0  0  0
   -0.0842    4.4302    0.2201 C   0  0  0  0  0  0  0  0  0  0  0  0
    1.2834    5.0068    0.1178 C   0  0  0  0  0  0  0  0  0  0  0  0
    1.4928    6.2609   -0.4490 O   0  0  0  0  0  0  0  0  0  0  0  0
    2.2776    4.3606    0.5478 O   0  0  0  0  0  0  0  0  0  0  0  0
   -1.6824    8.0024   -2.0084 H   0  0  0  0  0  0  0  0  0  0  0  0
   -2.8485    7.3612   -0.7920 H   0  0  0  0  0  0  0  0  0  0  0  0
   -2.5918    6.4884   -2.3707 H   0  0  0  0  0  0  0  0  0  0  0  0
   -3.3665    4.9708   -0.6035 H   0  0  0  0  0  0  0  0  0  0  0  0
   -3.6233    2.8235    0.5092 H   0  0  0  0  0  0  0  0  0  0  0  0
   -2.7327    1.0696    1.9230 H   0  0  0  0  0  0  0  0  0  0  0  0
   -1.0667    1.2256    2.5447 H   0  0  0  0  0  0  0  0  0  0  0  0
   -2.8365    0.6904   -0.6209 H   0  0  0  0  0  0  0  0  0  0  0  0
   -1.6137    0.4604   -2.7097 H   0  0  0  0  0  0  0  0  0  0  0  0
   -0.1531   -0.1477   -1.8507 H   0  0  0  0  0  0  0  0  0  0  0  0
   -0.7193    1.5353   -1.5815 H   0  0  0  0  0  0  0  0  0  0  0  0
   -2.7007   -4.2655   -2.1060 H   0  0  0  0  0  0  0  0  0  0  0  0
   -1.3519   -2.1167   -2.4645 H   0  0  0  0  0  0  0  0  0  0  0  0
   -4.2286   -5.7170   -1.2451 H   0  0  0  0  0  0  0  0  0  0  0  0
   -5.8428   -7.2548   -0.2246 H   0  0  0  0  0  0  0  0  0  0  0  0
   -7.1709   -6.5553    1.7457 H   0  0  0  0  0  0  0  0  0  0  0  0
   -6.8729   -4.2884    2.6996 H   0  0  0  0  0  0  0  0  0  0  0  0
   -5.2616   -2.7212    1.7021 H   0  0  0  0  0  0  0  0  0  0  0  0
    1.3387   -1.9177    1.6192 H   0  0  0  0  0  0  0  0  0  0  0  0
    0.2671   -2.8426   -0.2938 H   0  0  0  0  0  0  0  0  0  0  0  0
    1.8328   -2.3769   -0.5944 H   0  0  0  0  0  0  0  0  0  0  0  0
    1.6105    0.6240    1.6582 H   0  0  0  0  0  0  0  0  0  0  0  0
    1.3596    0.6683   -0.0777 H   0  0  0  0  0  0  0  0  0  0  0  0
    2.6210   -1.0714    3.2374 H   0  0  0  0  0  0  0  0  0  0  0  0
    3.3122    0.5974    3.3330 H   0  0  0  0  0  0  0  0  0  0  0  0
    4.2815   -0.8262    3.8342 H   0  0  0  0  0  0  0  0  0  0  0  0
    6.0214   -1.1175    2.3545 H   0  0  0  0  0  0  0  0  0  0  0  0
    5.6127   -0.6209   -1.8827 H   0  0  0  0  0  0  0  0  0  0  0  0
    3.6882    0.1091   -2.8892 H   0  0  0  0  0  0  0  0  0  0  0  0
    2.1972   -0.5173   -2.1368 H   0  0  0  0  0  0  0  0  0  0  0  0
    2.7065    1.2028   -1.8700 H   0  0  0  0  0  0  0  0  0  0  0  0
    7.8023   -0.1105   -1.7293 H   0  0  0  0  0  0  0  0  0  0  0  0
    9.1576   -1.1460   -1.1858 H   0  0  0  0  0  0  0  0  0  0  0  0
    0.5915    2.6833    1.2971 H   0  0  0  0  0  0  0  0  0  0  0  0
    2.4246    6.6525   -0.5183 H   0  0  0  0  0  0  0  0  0  0  0  0
  1  2  1  0
  2  3  1  0
  3  4  2  0
  4  5  1  0
  5  6  2  0
  6  7  1  0
  7  8  1  0
  8  9  1  0
  9 10  1  0
  9 11  1  0
 11 12  2  0
 12 13  1  0
 13 14  2  0
 14 15  1  0
 13 16  1  0
 16 17  2  0
 17 18  1  0
 18 19  2  0
 19 20  1  0
 20 21  2  0
  8 22  1  0
 22 23  2  0
 22 24  1  0
 24 25  1  0
 24 26  1  0
 26 27  1  0
 27 28  2  0
 28 29  1  0
 28 30  1  0
 30 31  2  0
 31 32  1  0
 32 33  2  0
 33 34  1  0
 31 35  1  0
 35 36  1  0
 35 37  2  0
  6 38  1  0
 38 39  2  0
 39 40  1  0
 40 41  1  0
 40 42  2  0
 39  3  1  0
 15 11  1  0
 21 16  1  0
 33 27  1  0
  1 43  1  0
  1 44  1  0
  1 45  1  0
  4 46  1  0
  5 47  1  0
  7 48  1  0
  7 49  1  0
  9 50  1  1
 10 51  1  0
 10 52  1  0
 10 53  1  0
 14 54  1  0
 15 55  1  0
 17 56  1  0
 18 57  1  0
 19 58  1  0
 20 59  1  0
 21 60  1  0
 24 61  1  1
 25 62  1  0
 25 63  1  0
 26 64  1  0
 26 65  1  0
 29 66  1  0
 29 67  1  0
 29 68  1  0
 30 69  1  0
 32 70  1  0
 34 71  1  0
 34 72  1  0
 34 73  1  0
 36 74  1  0
 36 75  1  0
 38 76  1  0
 41 77  1  0
M  END
$$$$
