
     RDKit          3D

 18 17  0  0  0  0  0  0  0  0999 V2000
    3.7969    0.5832   -0.7082 O   0  0  0  0  0  0  0  0  0  0  0  0
    2.8360   -0.3803   -0.3725 C   0  0  0  0  0  0  0  0  0  0  0  0
    1.6805    0.2688    0.3878 C   0  0  0  0  0  0  0  0  0  0  0  0
    0.4294   -0.9778    0.8481 S   0  0  0  0  0  0  0  0  0  0  0  0
   -0.5006   -1.0081   -1.0785 S   0  0  0  0  0  0  0  0  0  0  0  0
   -1.7761    0.2231   -0.6444 C   0  0  0  0  0  0  0  0  0  0  0  0
   -2.9136   -0.4302    0.1391 C   0  0  0  0  0  0  0  0  0  0  0  0
   -3.9215    0.5074    0.4022 O   0  0  0  0  0  0  0  0  0  0  0  0
    4.3085    0.7753    0.1208 H   0  0  0  0  0  0  0  0  0  0  0  0
    3.2954   -1.1872    0.2430 H   0  0  0  0  0  0  0  0  0  0  0  0
    2.4560   -0.8381   -1.3095 H   0  0  0  0  0  0  0  0  0  0  0  0
    1.2216    1.0744   -0.2241 H   0  0  0  0  0  0  0  0  0  0  0  0
    2.0697    0.7261    1.3219 H   0  0  0  0  0  0  0  0  0  0  0  0
   -1.3299    1.0538   -0.0574 H   0  0  0  0  0  0  0  0  0  0  0  0
   -2.1816    0.6473   -1.5872 H   0  0  0  0  0  0  0  0  0  0  0  0
   -3.3482   -1.2553   -0.4642 H   0  0  0  0  0  0  0  0  0  0  0  0
   -2.5334   -0.8638    1.0914 H   0  0  0  0  0  0  0  0  0  0  0  0
   -3.5893    1.0814    1.1412 H   0  0  0  0  0  0  0  0  0  0  0  0
  1  2  1  0
  2  3  1  0
  3  4  1  0
  4  5  1  0
  5  6  1  0
  6  7  1  0
  7  8  1  0
  1  9  1  0
  2 10  1  0
  2 11  1  0
  3 12  1  0
  3 13  1  0
  6 14  1  0
  6 15  1  0
  7 16  1  0
  7 17  1  0
  8 18  1  0
M  END
$$$$
