
     RDKit          3D

 23 23  0  0  0  0  0  0  0  0999 V2000
    1.3556    1.1035   -1.1978 N   0  0  0  0  0  0  0  0  0  0  0  0
    1.4619    0.6476    0.1901 C   0  0  1  0  0  0  0  0  0  0  0  0
    0.7836   -0.7227    0.3640 C   0  0  0  0  0  0  0  0  0  0  0  0
   -0.6570   -0.6371    0.0661 N   0  0  0  0  0  0  0  0  0  0  0  0
   -1.5074   -0.1978    1.0418 C   0  0  0  0  0  0  0  0  0  0  0  0
   -2.8725   -0.0831    0.7926 C   0  0  0  0  0  0  0  0  0  0  0  0
   -3.7137    0.3506    1.7649 F   0  0  0  0  0  0  0  0  0  0  0  0
   -3.3509   -0.4188   -0.4709 C   0  0  0  0  0  0  0  0  0  0  0  0
   -4.5813   -0.3255   -0.7266 O   0  0  0  0  0  0  0  0  0  0  0  0
   -2.4864   -0.8458   -1.4286 N   0  0  0  0  0  0  0  0  0  0  0  0
   -1.1524   -0.9541   -1.1747 C   0  0  0  0  0  0  0  0  0  0  0  0
   -0.3817   -1.3480   -2.0930 O   0  0  0  0  0  0  0  0  0  0  0  0
    2.9026    0.5847    0.6240 C   0  0  0  0  0  0  0  0  0  0  0  0
    3.3358    1.3597    1.6953 O   0  0  0  0  0  0  0  0  0  0  0  0
    3.7174   -0.1681    0.0247 O   0  0  0  0  0  0  0  0  0  0  0  0
    1.9073    0.4674   -1.8193 H   0  0  0  0  0  0  0  0  0  0  0  0
    1.7794    2.0573   -1.2704 H   0  0  0  0  0  0  0  0  0  0  0  0
    0.9345    1.3800    0.8409 H   0  0  0  0  0  0  0  0  0  0  0  0
    1.2787   -1.4814   -0.2817 H   0  0  0  0  0  0  0  0  0  0  0  0
    0.9266   -1.0734    1.4113 H   0  0  0  0  0  0  0  0  0  0  0  0
   -1.1295    0.0690    2.0221 H   0  0  0  0  0  0  0  0  0  0  0  0
   -2.8517   -1.0931   -2.3769 H   0  0  0  0  0  0  0  0  0  0  0  0
    4.3008    1.3292    2.0020 H   0  0  0  0  0  0  0  0  0  0  0  0
  1  2  1  0
  2  3  1  0
  3  4  1  0
  4  5  1  0
  5  6  2  0
  6  7  1  0
  6  8  1  0
  8  9  2  0
  8 10  1  0
 10 11  1  0
 11 12  2  0
  2 13  1  0
 13 14  1  0
 13 15  2  0
 11  4  1  0
  1 16  1  0
  1 17  1  0
  2 18  1  1
  3 19  1  0
  3 20  1  0
  5 21  1  0
 10 22  1  0
 14 23  1  0
M  END
$$$$
