
     RDKit          3D

 38 40  0  0  0  0  0  0  0  0999 V2000
    1.9900    2.7590   -0.1149 N   0  0  0  0  0  0  0  0  0  0  0  0
    0.7673    2.1428   -0.5415 C   0  0  0  0  0  0  0  0  0  0  0  0
    0.9310    0.8429   -0.8141 C   0  0  0  0  0  0  0  0  0  0  0  0
   -0.1599   -0.1126   -1.2180 C   0  0  0  0  0  0  0  0  0  0  0  0
   -0.5386   -1.0271   -0.1127 N   0  0  0  0  0  4  0  0  0  0  0  0
   -1.4762   -2.0647   -0.5824 C   0  0  0  0  0  0  0  0  0  0  0  0
   -2.9014   -1.6246   -0.2232 C   0  0  2  0  0  0  0  0  0  0  0  0
   -3.6404   -1.3313   -1.3808 O   0  0  0  0  0  0  0  0  0  0  0  0
   -2.7333   -0.3618    0.6232 C   0  0  1  0  0  0  0  0  0  0  0  0
   -3.6287   -0.3459    1.8745 C   0  0  0  0  0  0  0  0  0  0  0  0
   -4.9829   -0.3519    1.5107 O   0  0  0  0  0  0  0  0  0  0  0  0
   -1.2500   -0.3335    0.9732 C   0  0  0  0  0  0  0  0  0  0  0  0
    2.2888    0.4766   -0.3365 C   0  0  0  0  0  0  0  0  0  0  0  0
    3.0605   -0.5676   -1.0060 N   0  0  0  0  0  0  0  0  0  0  0  0
    4.3420   -0.6273   -0.7279 C   0  0  0  0  0  0  0  0  0  0  0  0
    4.9665    0.4081    0.0817 N   0  0  0  0  0  0  0  0  0  0  0  0
    4.2658    1.6547    0.2785 C   0  0  0  0  0  0  0  0  0  0  0  0
    4.7402    2.5806    0.9878 O   0  0  0  0  0  0  0  0  0  0  0  0
    3.0038    1.7965   -0.4963 C   0  0  0  0  0  0  0  0  0  0  0  0
    2.1367    3.7912   -0.0631 H   0  0  0  0  0  0  0  0  0  0  0  0
   -0.1608    2.6847   -0.6692 H   0  0  0  0  0  0  0  0  0  0  0  0
   -1.0453    0.4511   -1.5896 H   0  0  0  0  0  0  0  0  0  0  0  0
    0.2373   -0.7014   -2.0742 H   0  0  0  0  0  0  0  0  0  0  0  0
    0.3232   -1.4899    0.2646 H   0  0  0  0  0  0  0  0  0  0  0  0
   -1.2582   -3.0231   -0.0574 H   0  0  0  0  0  0  0  0  0  0  0  0
   -1.3747   -2.2747   -1.6718 H   0  0  0  0  0  0  0  0  0  0  0  0
   -3.4063   -2.4327    0.3582 H   0  0  0  0  0  0  0  0  0  0  0  0
   -3.8949   -2.2026   -1.7829 H   0  0  0  0  0  0  0  0  0  0  0  0
   -2.9596    0.5403    0.0098 H   0  0  0  0  0  0  0  0  0  0  0  0
   -3.4258   -1.2405    2.5019 H   0  0  0  0  0  0  0  0  0  0  0  0
   -3.4030    0.5549    2.4899 H   0  0  0  0  0  0  0  0  0  0  0  0
   -5.1930    0.5614    1.1830 H   0  0  0  0  0  0  0  0  0  0  0  0
   -0.9003    0.7101    1.1252 H   0  0  0  0  0  0  0  0  0  0  0  0
   -1.0716   -0.8796    1.9285 H   0  0  0  0  0  0  0  0  0  0  0  0
    2.1914    0.2070    0.7441 H   0  0  0  0  0  0  0  0  0  0  0  0
    4.9450   -1.4235   -1.1429 H   0  0  0  0  0  0  0  0  0  0  0  0
    5.9399    0.2833    0.4381 H   0  0  0  0  0  0  0  0  0  0  0  0
    3.2754    1.9714   -1.5648 H   0  0  0  0  0  0  0  0  0  0  0  0
  1  2  1  0
  2  3  2  0
  3  4  1  0
  4  5  1  0
  5  6  1  0
  6  7  1  0
  7  8  1  0
  7  9  1  0
  9 10  1  0
 10 11  1  0
  9 12  1  0
  3 13  1  0
 13 14  1  0
 14 15  2  0
 15 16  1  0
 16 17  1  0
 17 18  2  0
 17 19  1  0
 19  1  1  0
 12  5  1  0
 19 13  1  0
  1 20  1  0
  2 21  1  0
  4 22  1  0
  4 23  1  0
  5 24  1  0
  6 25  1  0
  6 26  1  0
  7 27  1  1
  8 28  1  0
  9 29  1  6
 10 30  1  0
 10 31  1  0
 11 32  1  0
 12 33  1  0
 12 34  1  0
 13 35  1  0
 15 36  1  0
 16 37  1  0
 19 38  1  0
M  CHG  1   5   1
M  END
$$$$
