
     RDKit          3D

 50 51  0  0  0  0  0  0  0  0999 V2000
   -0.9511   -1.2974   -0.3703 C   0  0  1  0  0  0  0  0  0  0  0  0
   -1.9254   -1.8523   -1.4819 C   0  0  0  0  0  0  0  0  0  0  0  0
   -1.3938   -1.6904   -2.9185 C   0  0  0  0  0  0  0  0  0  0  0  0
   -3.3857   -1.3863   -1.3448 C   0  0  0  0  0  0  0  0  0  0  0  0
   -1.3074    0.0563    0.1681 N   0  0  0  0  0  0  0  0  0  0  0  0
   -1.2155    1.1134   -0.8669 C   0  0  0  0  0  0  0  0  0  0  0  0
   -1.9448    2.3668   -0.4526 C   0  0  0  0  0  0  0  0  0  0  0  0
   -3.2517    2.3025    0.0549 C   0  0  0  0  0  0  0  0  0  0  0  0
   -3.9219    3.4744    0.4090 C   0  0  0  0  0  0  0  0  0  0  0  0
   -3.2844    4.7046    0.2401 C   0  0  0  0  0  0  0  0  0  0  0  0
   -2.0252    4.7547   -0.2693 N   0  0  0  0  0  0  0  0  0  0  0  0
   -1.3504    3.6274   -0.6207 C   0  0  0  0  0  0  0  0  0  0  0  0
   -0.2507    0.5158    1.5146 S   0  0  0  0  0  6  0  0  0  0  0  0
   -0.5147    1.9366    1.9295 O   0  0  0  0  0  0  0  0  0  0  0  0
   -0.5328   -0.3440    2.7149 O   0  0  0  0  0  0  0  0  0  0  0  0
    1.4609    0.3776    1.0950 C   0  0  0  0  0  0  0  0  0  0  0  0
    2.1097    1.4236    0.4244 C   0  0  0  0  0  0  0  0  0  0  0  0
    3.4616    1.3148    0.0875 C   0  0  0  0  0  0  0  0  0  0  0  0
    4.1891    0.1685    0.4270 C   0  0  0  0  0  0  0  0  0  0  0  0
    5.5422    0.1048    0.0629 O   0  0  0  0  0  0  0  0  0  0  0  0
    6.3983   -0.9981    0.3426 C   0  0  0  0  0  0  0  0  0  0  0  0
    3.5438   -0.8719    1.1220 C   0  0  0  0  0  0  0  0  0  0  0  0
    2.1918   -0.7610    1.4589 C   0  0  0  0  0  0  0  0  0  0  0  0
   -0.9468   -2.3355    0.7359 C   0  0  0  0  0  0  0  0  0  0  0  0
   -1.9228   -2.4089    1.5316 O   0  0  0  0  0  0  0  0  0  0  0  0
    0.1013   -3.3060    0.8125 N   0  0  0  0  0  0  0  0  0  0  0  0
    0.0839   -4.2635    1.7702 O   0  0  0  0  0  0  0  0  0  0  0  0
    0.0791   -1.2506   -0.7897 H   0  0  0  0  0  0  0  0  0  0  0  0
   -1.9749   -2.9616   -1.3682 H   0  0  0  0  0  0  0  0  0  0  0  0
   -0.3579   -2.0850   -2.9882 H   0  0  0  0  0  0  0  0  0  0  0  0
   -2.0243   -2.2815   -3.6172 H   0  0  0  0  0  0  0  0  0  0  0  0
   -1.3963   -0.6474   -3.2804 H   0  0  0  0  0  0  0  0  0  0  0  0
   -3.5370   -0.3528   -1.7096 H   0  0  0  0  0  0  0  0  0  0  0  0
   -4.0465   -2.0473   -1.9455 H   0  0  0  0  0  0  0  0  0  0  0  0
   -3.7146   -1.4469   -0.2864 H   0  0  0  0  0  0  0  0  0  0  0  0
   -0.1570    1.3199   -1.1291 H   0  0  0  0  0  0  0  0  0  0  0  0
   -1.6988    0.8146   -1.8019 H   0  0  0  0  0  0  0  0  0  0  0  0
   -3.7472    1.3485    0.1819 H   0  0  0  0  0  0  0  0  0  0  0  0
   -4.9269    3.4300    0.8083 H   0  0  0  0  0  0  0  0  0  0  0  0
   -3.7925    5.6208    0.5098 H   0  0  0  0  0  0  0  0  0  0  0  0
   -0.3512    3.7149   -1.0271 H   0  0  0  0  0  0  0  0  0  0  0  0
    1.5724    2.3262    0.1644 H   0  0  0  0  0  0  0  0  0  0  0  0
    3.9480    2.1271   -0.4377 H   0  0  0  0  0  0  0  0  0  0  0  0
    6.4772   -1.1516    1.4396 H   0  0  0  0  0  0  0  0  0  0  0  0
    6.0092   -1.9168   -0.1452 H   0  0  0  0  0  0  0  0  0  0  0  0
    7.4095   -0.7833   -0.0596 H   0  0  0  0  0  0  0  0  0  0  0  0
    4.0782   -1.7666    1.4109 H   0  0  0  0  0  0  0  0  0  0  0  0
    1.7210   -1.5606    2.0128 H   0  0  0  0  0  0  0  0  0  0  0  0
    0.8774   -3.3000    0.1134 H   0  0  0  0  0  0  0  0  0  0  0  0
    0.5957   -3.8765    2.5257 H   0  0  0  0  0  0  0  0  0  0  0  0
  1  2  1  0
  2  3  1  0
  2  4  1  0
  1  5  1  0
  5  6  1  0
  6  7  1  0
  7  8  2  0
  8  9  1  0
  9 10  2  0
 10 11  1  0
 11 12  2  0
  5 13  1  0
 13 14  2  0
 13 15  2  0
 13 16  1  0
 16 17  2  0
 17 18  1  0
 18 19  2  0
 19 20  1  0
 20 21  1  0
 19 22  1  0
 22 23  2  0
  1 24  1  0
 24 25  2  0
 24 26  1  0
 26 27  1  0
 12  7  1  0
 23 16  1  0
  1 28  1  6
  2 29  1  0
  3 30  1  0
  3 31  1  0
  3 32  1  0
  4 33  1  0
  4 34  1  0
  4 35  1  0
  6 36  1  0
  6 37  1  0
  8 38  1  0
  9 39  1  0
 10 40  1  0
 12 41  1  0
 17 42  1  0
 18 43  1  0
 21 44  1  0
 21 45  1  0
 21 46  1  0
 22 47  1  0
 23 48  1  0
 26 49  1  0
 27 50  1  0
M  END
$$$$
