
     RDKit          3D

 63 65  0  0  0  0  0  0  0  0999 V2000
   -3.5486    0.2153    1.1854 C   0  0  2  0  0  0  0  0  0  0  0  0
   -4.6076   -0.3885    2.1517 C   0  0  0  0  0  0  0  0  0  0  0  0
   -5.8321   -0.8912    1.4325 C   0  0  0  0  0  0  0  0  0  0  0  0
   -6.3619   -1.9324    1.7880 O   0  0  0  0  0  0  0  0  0  0  0  0
   -6.4518   -0.0807    0.3201 C   0  0  0  0  0  0  0  0  0  0  0  0
   -5.5730    1.1201   -0.0698 C   0  0  0  0  0  0  0  0  0  0  0  0
   -4.1009    0.6717   -0.1858 C   0  0  1  0  0  0  0  0  0  0  0  0
   -3.1123    1.7160   -0.8267 C   0  0  0  0  0  0  0  0  0  0  0  0
   -3.2744    1.7210   -2.3570 C   0  0  0  0  0  0  0  0  0  0  0  0
   -3.3462    3.1470   -0.3022 C   0  0  0  0  0  0  0  0  0  0  0  0
   -1.7398    1.3656   -0.5431 O   0  0  0  0  0  0  0  0  0  0  0  0
   -1.3284    0.2080    0.1451 C   0  0  0  0  0  0  0  0  0  0  0  0
   -0.0007   -0.2107    0.0420 C   0  0  0  0  0  0  0  0  0  0  0  0
    0.4360   -1.4118    0.6483 C   0  0  0  0  0  0  0  0  0  0  0  0
   -0.5522   -2.2285    1.2451 C   0  0  0  0  0  0  0  0  0  0  0  0
   -1.8912   -1.8294    1.3240 C   0  0  0  0  0  0  0  0  0  0  0  0
   -2.8191   -2.7825    1.7381 O   0  0  0  0  0  0  0  0  0  0  0  0
   -2.2520   -0.5274    0.9066 C   0  0  0  0  0  0  0  0  0  0  0  0
    1.9043   -1.9051    0.5693 C   0  0  0  0  0  0  0  0  0  0  0  0
    2.3812   -2.3084    1.9884 C   0  0  0  0  0  0  0  0  0  0  0  0
    1.9443   -3.1421   -0.3585 C   0  0  0  0  0  0  0  0  0  0  0  0
    2.8599   -0.7951    0.0052 C   0  0  0  0  0  0  0  0  0  0  0  0
    4.3752   -1.0990    0.0662 C   0  0  0  0  0  0  0  0  0  0  0  0
    5.2105   -0.1139   -0.7694 C   0  0  0  0  0  0  0  0  0  0  0  0
    5.2225    1.3061   -0.1770 C   0  0  0  0  0  0  0  0  0  0  0  0
    6.0955    2.2750   -0.9900 C   0  0  0  0  0  0  0  0  0  0  0  0
    7.5919    2.0270   -0.8000 C   0  0  0  0  0  0  0  0  0  0  0  0
   -3.2200    1.1290    1.7295 H   0  0  0  0  0  0  0  0  0  0  0  0
   -4.1833   -1.1320    2.8532 H   0  0  0  0  0  0  0  0  0  0  0  0
   -4.9715    0.4249    2.8184 H   0  0  0  0  0  0  0  0  0  0  0  0
   -7.4545    0.2783    0.6360 H   0  0  0  0  0  0  0  0  0  0  0  0
   -6.5815   -0.7368   -0.5680 H   0  0  0  0  0  0  0  0  0  0  0  0
   -5.6730    1.9149    0.7017 H   0  0  0  0  0  0  0  0  0  0  0  0
   -5.9358    1.5276   -1.0366 H   0  0  0  0  0  0  0  0  0  0  0  0
   -4.1053   -0.2277   -0.8476 H   0  0  0  0  0  0  0  0  0  0  0  0
   -2.5560    2.4326   -2.8181 H   0  0  0  0  0  0  0  0  0  0  0  0
   -3.0640    0.7118   -2.7713 H   0  0  0  0  0  0  0  0  0  0  0  0
   -4.3014    2.0209   -2.6530 H   0  0  0  0  0  0  0  0  0  0  0  0
   -2.5767    3.8337   -0.7158 H   0  0  0  0  0  0  0  0  0  0  0  0
   -3.2719    3.1880    0.8033 H   0  0  0  0  0  0  0  0  0  0  0  0
   -4.3429    3.5305   -0.6071 H   0  0  0  0  0  0  0  0  0  0  0  0
    0.6638    0.4169   -0.5313 H   0  0  0  0  0  0  0  0  0  0  0  0
   -0.3049   -3.2182    1.6028 H   0  0  0  0  0  0  0  0  0  0  0  0
   -3.7785   -2.7720    1.4212 H   0  0  0  0  0  0  0  0  0  0  0  0
    3.4015   -2.7438    1.9635 H   0  0  0  0  0  0  0  0  0  0  0  0
    1.7370   -3.0862    2.4440 H   0  0  0  0  0  0  0  0  0  0  0  0
    2.3866   -1.4226    2.6593 H   0  0  0  0  0  0  0  0  0  0  0  0
    2.9504   -3.6060   -0.3848 H   0  0  0  0  0  0  0  0  0  0  0  0
    1.2439   -3.9300   -0.0111 H   0  0  0  0  0  0  0  0  0  0  0  0
    1.6570   -2.8593   -1.3941 H   0  0  0  0  0  0  0  0  0  0  0  0
    2.5944   -0.5996   -1.0572 H   0  0  0  0  0  0  0  0  0  0  0  0
    2.6882    0.1383    0.5839 H   0  0  0  0  0  0  0  0  0  0  0  0
    4.5783   -2.1147   -0.3268 H   0  0  0  0  0  0  0  0  0  0  0  0
    4.7307   -1.0642    1.1184 H   0  0  0  0  0  0  0  0  0  0  0  0
    6.2490   -0.5047   -0.8046 H   0  0  0  0  0  0  0  0  0  0  0  0
    4.8270   -0.0862   -1.8129 H   0  0  0  0  0  0  0  0  0  0  0  0
    5.5727    1.2777    0.8781 H   0  0  0  0  0  0  0  0  0  0  0  0
    4.1881    1.7097   -0.1795 H   0  0  0  0  0  0  0  0  0  0  0  0
    5.8723    3.3118   -0.6564 H   0  0  0  0  0  0  0  0  0  0  0  0
    5.8397    2.2083   -2.0698 H   0  0  0  0  0  0  0  0  0  0  0  0
    8.1655    2.8287   -1.3112 H   0  0  0  0  0  0  0  0  0  0  0  0
    7.8547    2.0395    0.2791 H   0  0  0  0  0  0  0  0  0  0  0  0
    7.8912    1.0550   -1.2428 H   0  0  0  0  0  0  0  0  0  0  0  0
  1  2  1  0
  2  3  1  0
  3  4  2  0
  3  5  1  0
  5  6  1  0
  6  7  1  0
  7  8  1  0
  8  9  1  0
  8 10  1  0
  8 11  1  0
 11 12  1  0
 12 13  2  0
 13 14  1  0
 14 15  2  0
 15 16  1  0
 16 17  1  0
 16 18  2  0
 14 19  1  0
 19 20  1  0
 19 21  1  0
 19 22  1  0
 22 23  1  0
 23 24  1  0
 24 25  1  0
 25 26  1  0
 26 27  1  0
  7  1  1  0
 18 12  1  0
 18  1  1  0
  1 28  1  1
  2 29  1  0
  2 30  1  0
  5 31  1  0
  5 32  1  0
  6 33  1  0
  6 34  1  0
  7 35  1  6
  9 36  1  0
  9 37  1  0
  9 38  1  0
 10 39  1  0
 10 40  1  0
 10 41  1  0
 13 42  1  0
 15 43  1  0
 17 44  1  0
 20 45  1  0
 20 46  1  0
 20 47  1  0
 21 48  1  0
 21 49  1  0
 21 50  1  0
 22 51  1  0
 22 52  1  0
 23 53  1  0
 23 54  1  0
 24 55  1  0
 24 56  1  0
 25 57  1  0
 25 58  1  0
 26 59  1  0
 26 60  1  0
 27 61  1  0
 27 62  1  0
 27 63  1  0
M  END
$$$$
