
     RDKit          3D

 21 20  0  0  0  0  0  0  0  0999 V2000
    2.1227    2.4088   -0.4547 C   0  0  0  0  0  0  0  0  0  0  0  0
    1.5478    0.9426    0.4194 S   0  0  0  0  0  4  0  0  0  0  0  0
    2.8323    0.1823    0.7221 O   0  0  0  0  0  0  0  0  0  0  0  0
    0.7489   -0.0500   -0.8665 C   0  0  0  0  0  0  0  0  0  0  0  0
    0.1504   -1.3511   -0.3001 C   0  0  0  0  0  0  0  0  0  0  0  0
   -1.2578   -1.2238    0.3343 C   0  0  1  0  0  0  0  0  0  0  0  0
   -1.2837   -0.2437    1.4786 C   0  0  0  0  0  0  0  0  0  0  0  0
   -1.6887    1.0713    1.2787 O   0  0  0  0  0  1  0  0  0  0  0  0
   -0.8951   -0.6034    2.6211 O   0  0  0  0  0  0  0  0  0  0  0  0
   -2.2878   -0.9068   -0.6656 N   0  0  0  0  0  4  0  0  0  0  0  0
    1.2492    2.9869   -0.8203 H   0  0  0  0  0  0  0  0  0  0  0  0
    2.7545    2.1108   -1.3171 H   0  0  0  0  0  0  0  0  0  0  0  0
    2.7173    3.0415    0.2361 H   0  0  0  0  0  0  0  0  0  0  0  0
   -0.0169    0.5615   -1.3824 H   0  0  0  0  0  0  0  0  0  0  0  0
    1.5211   -0.3125   -1.6210 H   0  0  0  0  0  0  0  0  0  0  0  0
    0.0889   -2.0911   -1.1276 H   0  0  0  0  0  0  0  0  0  0  0  0
    0.8505   -1.7854    0.4469 H   0  0  0  0  0  0  0  0  0  0  0  0
   -1.5030   -2.2245    0.7583 H   0  0  0  0  0  0  0  0  0  0  0  0
   -3.2334   -0.9670   -0.2219 H   0  0  0  0  0  0  0  0  0  0  0  0
   -2.2525   -1.6008   -1.4472 H   0  0  0  0  0  0  0  0  0  0  0  0
   -2.1646    0.0543   -1.0556 H   0  0  0  0  0  0  0  0  0  0  0  0
  2  1  1  6
  2  3  2  0
  2  4  1  0
  4  5  1  0
  5  6  1  0
  6  7  1  0
  7  8  1  0
  7  9  2  0
  6 10  1  0
  1 11  1  0
  1 12  1  0
  1 13  1  0
  4 14  1  0
  4 15  1  0
  5 16  1  0
  5 17  1  0
  6 18  1  1
 10 19  1  0
 10 20  1  0
 10 21  1  0
M  CHG  2   8  -1  10   1
M  END
$$$$
