
     RDKit          3D

114115  0  0  0  0  0  0  0  0999 V2000
   -1.1663   -3.3779    0.3413 C   0  0  0  0  0  0  0  0  0  0  0  0
   -0.3714   -3.3857   -0.9695 C   0  0  0  0  0  0  0  0  0  0  0  0
    0.9627   -4.1259   -0.7941 C   0  0  0  0  0  0  0  0  0  0  0  0
   -0.1940   -1.9757   -1.5913 C   0  0  0  0  0  0  0  0  0  0  0  0
    0.5211   -0.9282   -0.6920 C   0  0  2  0  0  0  0  0  0  0  0  0
   -0.3845   -0.4239    0.3520 N   0  0  0  0  0  0  0  0  0  0  0  0
   -1.5887    0.3273    0.1107 C   0  0  0  0  0  0  0  0  0  0  0  0
   -1.9090    0.6665   -1.0598 O   0  0  0  0  0  0  0  0  0  0  0  0
   -2.4686    0.7493    1.2594 C   0  0  2  0  0  0  0  0  0  0  0  0
   -1.7783    1.8215    2.1227 C   0  0  0  0  0  0  0  0  0  0  0  0
   -1.5516    3.1016    1.3616 C   0  0  0  0  0  0  0  0  0  0  0  0
   -0.4215    3.2977    0.8396 O   0  0  0  0  0  0  0  0  0  0  0  0
   -2.5704    4.1038    1.2036 N   0  0  0  0  0  0  0  0  0  0  0  0
   -3.9825    3.9429    1.5554 C   0  0  0  0  0  0  0  0  0  0  0  0
   -4.8385    3.9608    0.2864 C   0  0  0  0  0  0  0  0  0  0  0  0
   -6.3299    3.8003    0.6189 C   0  0  0  0  0  0  0  0  0  0  0  0
   -7.2329    4.0270   -0.6114 C   0  0  0  0  0  0  0  0  0  0  0  0
   -7.7397    2.7322   -1.2673 C   0  0  0  0  0  0  0  0  0  0  0  0
   -6.6405    1.9169   -1.9541 C   0  0  0  0  0  0  0  0  0  0  0  0
   -6.0030    1.0644   -1.0090 O   0  0  0  0  0  0  0  0  0  0  0  0
   -5.0830    0.0798   -1.3817 C   0  0  0  0  0  0  0  0  0  0  0  0
   -4.6777    0.0050   -2.5734 O   0  0  0  0  0  0  0  0  0  0  0  0
   -4.6071   -0.8645   -0.4163 N   0  0  0  0  0  0  0  0  0  0  0  0
   -5.0825   -0.8883    0.9715 C   0  0  1  0  0  0  0  0  0  0  0  0
   -6.3254   -1.8210    1.1209 C   0  0  0  0  0  0  0  0  0  0  0  0
   -6.1301   -3.1944    0.4524 C   0  0  0  0  0  0  0  0  0  0  0  0
   -7.5995   -1.1583    0.5764 C   0  0  0  0  0  0  0  0  0  0  0  0
   -3.9399   -1.2666    1.9011 C   0  0  0  0  0  0  0  0  0  0  0  0
   -3.9906   -2.3448    2.5532 O   0  0  0  0  0  0  0  0  0  0  0  0
   -2.7937   -0.4171    2.0870 N   0  0  0  0  0  0  0  0  0  0  0  0
    1.1259    0.2610   -1.5040 C   0  0  1  0  0  0  0  0  0  0  0  0
    1.5475    1.3028   -0.6554 O   0  0  0  0  0  0  0  0  0  0  0  0
    2.2597   -0.1053   -2.5031 C   0  0  0  0  0  0  0  0  0  0  0  0
    3.3801   -1.0352   -1.9770 C   0  0  1  0  0  0  0  0  0  0  0  0
    4.3789   -1.3519   -3.0965 C   0  0  0  0  0  0  0  0  0  0  0  0
    4.1153   -0.4309   -0.8098 C   0  0  0  0  0  0  0  0  0  0  0  0
    4.6974    0.6802   -0.9488 O   0  0  0  0  0  0  0  0  0  0  0  0
    4.1597   -1.1155    0.4527 N   0  0  0  0  0  0  0  0  0  0  0  0
    4.9238   -0.5887    1.5894 C   0  0  1  0  0  0  0  0  0  0  0  0
    4.5768   -1.3393    2.9069 C   0  0  0  0  0  0  0  0  0  0  0  0
    5.0641   -2.7991    2.9356 C   0  0  0  0  0  0  0  0  0  0  0  0
    5.1116   -0.5830    4.1318 C   0  0  0  0  0  0  0  0  0  0  0  0
    6.3977   -0.6195    1.2664 C   0  0  0  0  0  0  0  0  0  0  0  0
    6.9119   -1.6658    0.7845 O   0  0  0  0  0  0  0  0  0  0  0  0
    7.2021    0.5514    1.4594 N   0  0  0  0  0  0  0  0  0  0  0  0
    8.4495    0.7563    0.7281 C   0  0  0  0  0  0  0  0  0  0  0  0
    8.1523    0.9884   -0.7291 C   0  0  0  0  0  0  0  0  0  0  0  0
    8.2798   -0.0571   -1.6593 C   0  0  0  0  0  0  0  0  0  0  0  0
    7.9260    0.1435   -2.9971 C   0  0  0  0  0  0  0  0  0  0  0  0
    7.4397    1.3853   -3.4145 C   0  0  0  0  0  0  0  0  0  0  0  0
    7.3057    2.4286   -2.4945 C   0  0  0  0  0  0  0  0  0  0  0  0
    7.6562    2.2316   -1.1552 C   0  0  0  0  0  0  0  0  0  0  0  0
   -1.4503   -4.4161    0.6160 H   0  0  0  0  0  0  0  0  0  0  0  0
   -2.0972   -2.7884    0.2225 H   0  0  0  0  0  0  0  0  0  0  0  0
   -0.5649   -2.9558    1.1725 H   0  0  0  0  0  0  0  0  0  0  0  0
   -0.9679   -3.9756   -1.7011 H   0  0  0  0  0  0  0  0  0  0  0  0
    1.5790   -3.6704    0.0081 H   0  0  0  0  0  0  0  0  0  0  0  0
    1.5375   -4.1180   -1.7443 H   0  0  0  0  0  0  0  0  0  0  0  0
    0.7711   -5.1853   -0.5199 H   0  0  0  0  0  0  0  0  0  0  0  0
    0.3716   -2.1095   -2.5355 H   0  0  0  0  0  0  0  0  0  0  0  0
   -1.1908   -1.5956   -1.8973 H   0  0  0  0  0  0  0  0  0  0  0  0
    1.3595   -1.4264   -0.1717 H   0  0  0  0  0  0  0  0  0  0  0  0
   -0.1090   -0.6012    1.3441 H   0  0  0  0  0  0  0  0  0  0  0  0
   -3.4000    1.1914    0.8540 H   0  0  0  0  0  0  0  0  0  0  0  0
   -2.3823    2.0284    3.0309 H   0  0  0  0  0  0  0  0  0  0  0  0
   -0.8008    1.4382    2.4894 H   0  0  0  0  0  0  0  0  0  0  0  0
   -2.2958    4.9985    0.7377 H   0  0  0  0  0  0  0  0  0  0  0  0
   -4.1687    3.0064    2.1158 H   0  0  0  0  0  0  0  0  0  0  0  0
   -4.2795    4.7877    2.2135 H   0  0  0  0  0  0  0  0  0  0  0  0
   -4.6757    4.9295   -0.2351 H   0  0  0  0  0  0  0  0  0  0  0  0
   -4.5094    3.1430   -0.3877 H   0  0  0  0  0  0  0  0  0  0  0  0
   -6.5142    2.8004    1.0697 H   0  0  0  0  0  0  0  0  0  0  0  0
   -6.5991    4.5587    1.3873 H   0  0  0  0  0  0  0  0  0  0  0  0
   -6.7315    4.6646   -1.3723 H   0  0  0  0  0  0  0  0  0  0  0  0
   -8.1297    4.5939   -0.2774 H   0  0  0  0  0  0  0  0  0  0  0  0
   -8.4881    3.0183   -2.0385 H   0  0  0  0  0  0  0  0  0  0  0  0
   -8.2704    2.1037   -0.5188 H   0  0  0  0  0  0  0  0  0  0  0  0
   -5.8933    2.5818   -2.4393 H   0  0  0  0  0  0  0  0  0  0  0  0
   -7.1111    1.2889   -2.7423 H   0  0  0  0  0  0  0  0  0  0  0  0
   -3.9659   -1.6215   -0.7452 H   0  0  0  0  0  0  0  0  0  0  0  0
   -5.3916    0.1350    1.2783 H   0  0  0  0  0  0  0  0  0  0  0  0
   -6.5040   -1.9918    2.2063 H   0  0  0  0  0  0  0  0  0  0  0  0
   -5.2026   -3.6871    0.8077 H   0  0  0  0  0  0  0  0  0  0  0  0
   -6.0745   -3.0934   -0.6525 H   0  0  0  0  0  0  0  0  0  0  0  0
   -6.9853   -3.8593    0.6990 H   0  0  0  0  0  0  0  0  0  0  0  0
   -7.5489   -1.0423   -0.5263 H   0  0  0  0  0  0  0  0  0  0  0  0
   -7.7492   -0.1604    1.0411 H   0  0  0  0  0  0  0  0  0  0  0  0
   -8.4853   -1.7834    0.8193 H   0  0  0  0  0  0  0  0  0  0  0  0
   -2.0749   -0.7410    2.7743 H   0  0  0  0  0  0  0  0  0  0  0  0
    0.3134    0.6838   -2.1307 H   0  0  0  0  0  0  0  0  0  0  0  0
    2.0357    0.9043    0.1100 H   0  0  0  0  0  0  0  0  0  0  0  0
    2.7154    0.8403   -2.8730 H   0  0  0  0  0  0  0  0  0  0  0  0
    1.8005   -0.5807   -3.3965 H   0  0  0  0  0  0  0  0  0  0  0  0
    2.9328   -2.0047   -1.6772 H   0  0  0  0  0  0  0  0  0  0  0  0
    4.8446   -0.4212   -3.4865 H   0  0  0  0  0  0  0  0  0  0  0  0
    3.8641   -1.8704   -3.9334 H   0  0  0  0  0  0  0  0  0  0  0  0
    5.1811   -2.0211   -2.7169 H   0  0  0  0  0  0  0  0  0  0  0  0
    3.6079   -1.9955    0.5601 H   0  0  0  0  0  0  0  0  0  0  0  0
    4.6144    0.4718    1.7265 H   0  0  0  0  0  0  0  0  0  0  0  0
    3.4674   -1.3574    2.9970 H   0  0  0  0  0  0  0  0  0  0  0  0
    6.1715   -2.8490    3.0007 H   0  0  0  0  0  0  0  0  0  0  0  0
    4.6439   -3.3171    3.8240 H   0  0  0  0  0  0  0  0  0  0  0  0
    4.7322   -3.3519    2.0333 H   0  0  0  0  0  0  0  0  0  0  0  0
    4.7886   -1.0902    5.0660 H   0  0  0  0  0  0  0  0  0  0  0  0
    4.7129    0.4537    4.1494 H   0  0  0  0  0  0  0  0  0  0  0  0
    6.2216   -0.5402    4.1159 H   0  0  0  0  0  0  0  0  0  0  0  0
    6.8262    1.3404    2.0323 H   0  0  0  0  0  0  0  0  0  0  0  0
    8.9769    1.6437    1.1409 H   0  0  0  0  0  0  0  0  0  0  0  0
    9.1207   -0.1184    0.8706 H   0  0  0  0  0  0  0  0  0  0  0  0
    8.6422   -1.0288   -1.3481 H   0  0  0  0  0  0  0  0  0  0  0  0
    8.0215   -0.6663   -3.7088 H   0  0  0  0  0  0  0  0  0  0  0  0
    7.1618    1.5372   -4.4494 H   0  0  0  0  0  0  0  0  0  0  0  0
    6.9218    3.3877   -2.8173 H   0  0  0  0  0  0  0  0  0  0  0  0
    7.5297    3.0418   -0.4478 H   0  0  0  0  0  0  0  0  0  0  0  0
  1  2  1  0
  2  3  1  0
  2  4  1  0
  4  5  1  0
  5  6  1  0
  6  7  1  0
  7  8  2  0
  7  9  1  0
  9 10  1  0
 10 11  1  0
 11 12  2  0
 11 13  1  0
 13 14  1  0
 14 15  1  0
 15 16  1  0
 16 17  1  0
 17 18  1  0
 18 19  1  0
 19 20  1  0
 20 21  1  0
 21 22  2  0
 21 23  1  0
 23 24  1  0
 24 25  1  0
 25 26  1  0
 25 27  1  0
 24 28  1  0
 28 29  2  0
 28 30  1  0
  5 31  1  0
 31 32  1  0
 31 33  1  0
 33 34  1  0
 34 35  1  0
 34 36  1  0
 36 37  2  0
 36 38  1  0
 38 39  1  0
 39 40  1  0
 40 41  1  0
 40 42  1  0
 39 43  1  0
 43 44  2  0
 43 45  1  0
 45 46  1  0
 46 47  1  0
 47 48  2  0
 48 49  1  0
 49 50  2  0
 50 51  1  0
 51 52  2  0
 30  9  1  0
 52 47  1  0
  1 53  1  0
  1 54  1  0
  1 55  1  0
  2 56  1  0
  3 57  1  0
  3 58  1  0
  3 59  1  0
  4 60  1  0
  4 61  1  0
  5 62  1  1
  6 63  1  0
  9 64  1  6
 10 65  1  0
 10 66  1  0
 13 67  1  0
 14 68  1  0
 14 69  1  0
 15 70  1  0
 15 71  1  0
 16 72  1  0
 16 73  1  0
 17 74  1  0
 17 75  1  0
 18 76  1  0
 18 77  1  0
 19 78  1  0
 19 79  1  0
 23 80  1  0
 24 81  1  1
 25 82  1  0
 26 83  1  0
 26 84  1  0
 26 85  1  0
 27 86  1  0
 27 87  1  0
 27 88  1  0
 30 89  1  0
 31 90  1  6
 32 91  1  0
 33 92  1  0
 33 93  1  0
 34 94  1  1
 35 95  1  0
 35 96  1  0
 35 97  1  0
 38 98  1  0
 39 99  1  1
 40100  1  0
 41101  1  0
 41102  1  0
 41103  1  0
 42104  1  0
 42105  1  0
 42106  1  0
 45107  1  0
 46108  1  0
 46109  1  0
 48110  1  0
 49111  1  0
 50112  1  0
 51113  1  0
 52114  1  0
M  END
$$$$
