
     RDKit          3D

 40 40  0  0  0  0  0  0  0  0999 V2000
   -0.4547   -3.3219    0.3920 C   0  0  0  0  0  0  0  0  0  0  0  0
   -0.7638   -2.3653   -0.7673 C   0  0  0  0  0  0  0  0  0  0  0  0
   -1.7914   -2.9786   -1.7263 C   0  0  0  0  0  0  0  0  0  0  0  0
   -1.2350   -1.0101   -0.2554 C   0  0  0  0  0  0  0  0  0  0  0  0
   -2.4085   -0.9252    0.5156 C   0  0  0  0  0  0  0  0  0  0  0  0
   -2.8697    0.3048    0.9758 C   0  0  0  0  0  0  0  0  0  0  0  0
   -2.1840    1.4741    0.6593 C   0  0  0  0  0  0  0  0  0  0  0  0
   -1.0134    1.4332   -0.1203 C   0  0  0  0  0  0  0  0  0  0  0  0
   -0.3166    2.7330   -0.5017 C   0  0  0  0  0  0  0  0  0  0  0  0
   -1.2491    3.6502   -1.3039 C   0  0  0  0  0  0  0  0  0  0  0  0
    0.2258    3.4516    0.7400 C   0  0  0  0  0  0  0  0  0  0  0  0
   -0.5195    0.1763   -0.5519 C   0  0  0  0  0  0  0  0  0  0  0  0
    0.6702    0.1014   -1.2854 O   0  0  0  0  0  0  0  0  0  0  0  0
    1.9469    0.1106   -0.6523 C   0  0  0  0  0  0  0  0  0  0  0  0
    2.0758   -1.0361    0.1532 O   0  0  0  0  0  0  0  0  0  0  0  0
    3.5435   -0.9364    1.0156 P   0  0  0  0  0  5  0  0  0  0  0  0
    4.8434   -0.6951   -0.0446 O   0  0  0  0  0  0  0  0  0  0  0  0
    3.7818   -2.3879    1.8501 O   0  0  0  0  0  0  0  0  0  0  0  0
    3.4780    0.1969    2.0158 O   0  0  0  0  0  0  0  0  0  0  0  0
    0.2666   -2.8533    1.0946 H   0  0  0  0  0  0  0  0  0  0  0  0
   -1.3763   -3.5880    0.9513 H   0  0  0  0  0  0  0  0  0  0  0  0
    0.0003   -4.2569    0.0009 H   0  0  0  0  0  0  0  0  0  0  0  0
    0.1763   -2.2536   -1.3475 H   0  0  0  0  0  0  0  0  0  0  0  0
   -2.7429   -3.2102   -1.2025 H   0  0  0  0  0  0  0  0  0  0  0  0
   -2.0020   -2.2738   -2.5590 H   0  0  0  0  0  0  0  0  0  0  0  0
   -1.3915   -3.9195   -2.1611 H   0  0  0  0  0  0  0  0  0  0  0  0
   -2.9734   -1.8145    0.7625 H   0  0  0  0  0  0  0  0  0  0  0  0
   -3.7724    0.3536    1.5713 H   0  0  0  0  0  0  0  0  0  0  0  0
   -2.5764    2.4163    1.0187 H   0  0  0  0  0  0  0  0  0  0  0  0
    0.5502    2.5268   -1.1634 H   0  0  0  0  0  0  0  0  0  0  0  0
   -2.1007    4.0035   -0.6852 H   0  0  0  0  0  0  0  0  0  0  0  0
   -1.6472    3.1081   -2.1883 H   0  0  0  0  0  0  0  0  0  0  0  0
   -0.6882    4.5384   -1.6657 H   0  0  0  0  0  0  0  0  0  0  0  0
   -0.6008    3.7891    1.4005 H   0  0  0  0  0  0  0  0  0  0  0  0
    0.8192    4.3401    0.4358 H   0  0  0  0  0  0  0  0  0  0  0  0
    0.8887    2.7725    1.3171 H   0  0  0  0  0  0  0  0  0  0  0  0
    2.0477    1.0416   -0.0519 H   0  0  0  0  0  0  0  0  0  0  0  0
    2.7193    0.1063   -1.4514 H   0  0  0  0  0  0  0  0  0  0  0  0
    4.8922    0.2854   -0.1770 H   0  0  0  0  0  0  0  0  0  0  0  0
    3.7518   -3.0876    1.1498 H   0  0  0  0  0  0  0  0  0  0  0  0
  1  2  1  0
  2  3  1  0
  2  4  1  0
  4  5  2  0
  5  6  1  0
  6  7  2  0
  7  8  1  0
  8  9  1  0
  9 10  1  0
  9 11  1  0
  8 12  2  0
 12 13  1  0
 13 14  1  0
 14 15  1  0
 15 16  1  0
 16 17  1  0
 16 18  1  0
 16 19  2  0
 12  4  1  0
  1 20  1  0
  1 21  1  0
  1 22  1  0
  2 23  1  0
  3 24  1  0
  3 25  1  0
  3 26  1  0
  5 27  1  0
  6 28  1  0
  7 29  1  0
  9 30  1  0
 10 31  1  0
 10 32  1  0
 10 33  1  0
 11 34  1  0
 11 35  1  0
 11 36  1  0
 14 37  1  0
 14 38  1  0
 17 39  1  0
 18 40  1  0
M  END
$$$$
