
     RDKit          3D

 40 43  0  0  0  0  0  0  0  0999 V2000
   -3.2612    0.4057    0.5841 C   0  0  1  0  0  0  0  0  0  0  0  0
   -2.5054   -0.9057    0.8536 C   0  0  0  0  0  0  0  0  0  0  0  0
   -1.9948   -1.3292   -0.5216 C   0  0  0  0  0  0  0  0  0  0  0  0
   -2.5032   -0.2266   -1.4650 C   0  0  2  0  0  0  0  0  0  0  0  0
   -1.4635    0.9092   -1.6087 C   0  0  0  0  0  0  0  0  0  0  0  0
   -1.1135    1.5743   -0.2421 C   0  0  1  0  0  0  0  0  0  0  0  0
   -2.3276    1.6307    0.7286 C   0  0  0  0  0  0  0  0  0  0  0  0
   -0.0446    0.8706    0.3933 O   0  0  0  0  0  0  0  0  0  0  0  0
    1.2879    0.9313   -0.0290 C   0  0  0  0  0  0  0  0  0  0  0  0
    1.6288    1.7082   -0.9615 O   0  0  0  0  0  0  0  0  0  0  0  0
    2.2861    0.0752    0.6295 C   0  0  0  0  0  0  0  0  0  0  0  0
    2.0276   -0.8406    1.6489 C   0  0  0  0  0  0  0  0  0  0  0  0
    3.1651   -1.4695    2.0239 N   0  0  0  0  0  0  0  0  0  0  0  0
    4.1335   -0.9573    1.2490 C   0  0  0  0  0  0  0  0  0  0  0  0
    3.6464   -0.0144    0.3849 C   0  0  0  0  0  0  0  0  0  0  0  0
    4.4941    0.6384   -0.5096 C   0  0  0  0  0  0  0  0  0  0  0  0
    5.8557    0.2897   -0.4850 C   0  0  0  0  0  0  0  0  0  0  0  0
    6.3147   -0.6894    0.4238 C   0  0  0  0  0  0  0  0  0  0  0  0
    5.4450   -1.3022    1.2815 N   0  0  0  0  0  0  0  0  0  0  0  0
   -3.6796    0.3611   -0.8192 N   0  0  0  0  0  0  0  0  0  0  0  0
   -4.8938   -0.4510   -1.0179 C   0  0  0  0  0  0  0  0  0  0  0  0
   -4.1279    0.5207    1.2738 H   0  0  0  0  0  0  0  0  0  0  0  0
   -1.6770   -0.7794    1.5839 H   0  0  0  0  0  0  0  0  0  0  0  0
   -3.2068   -1.6712    1.2515 H   0  0  0  0  0  0  0  0  0  0  0  0
   -0.8878   -1.4308   -0.5402 H   0  0  0  0  0  0  0  0  0  0  0  0
   -2.4396   -2.3070   -0.8084 H   0  0  0  0  0  0  0  0  0  0  0  0
   -2.7420   -0.6363   -2.4726 H   0  0  0  0  0  0  0  0  0  0  0  0
   -1.8898    1.6859   -2.2808 H   0  0  0  0  0  0  0  0  0  0  0  0
   -0.5483    0.5209   -2.1046 H   0  0  0  0  0  0  0  0  0  0  0  0
   -0.7823    2.6208   -0.4270 H   0  0  0  0  0  0  0  0  0  0  0  0
   -2.9199    2.5455    0.5059 H   0  0  0  0  0  0  0  0  0  0  0  0
   -1.9748    1.7194    1.7794 H   0  0  0  0  0  0  0  0  0  0  0  0
    1.0587   -1.0378    2.0895 H   0  0  0  0  0  0  0  0  0  0  0  0
    3.2657   -2.2017    2.7613 H   0  0  0  0  0  0  0  0  0  0  0  0
    4.1316    1.3863   -1.2006 H   0  0  0  0  0  0  0  0  0  0  0  0
    6.5506    0.7704   -1.1611 H   0  0  0  0  0  0  0  0  0  0  0  0
    7.3626   -0.9575    0.4423 H   0  0  0  0  0  0  0  0  0  0  0  0
   -5.1526   -0.4798   -2.0977 H   0  0  0  0  0  0  0  0  0  0  0  0
   -4.7695   -1.4928   -0.6521 H   0  0  0  0  0  0  0  0  0  0  0  0
   -5.7485    0.0160   -0.4840 H   0  0  0  0  0  0  0  0  0  0  0  0
  1  2  1  0
  2  3  1  0
  3  4  1  0
  4  5  1  0
  5  6  1  0
  6  7  1  0
  6  8  1  0
  8  9  1  0
  9 10  2  0
  9 11  1  0
 11 12  2  0
 12 13  1  0
 13 14  1  0
 14 15  2  0
 15 16  1  0
 16 17  2  0
 17 18  1  0
 18 19  2  0
  4 20  1  0
 20 21  1  0
  7  1  1  0
 15 11  1  0
 20  1  1  0
 19 14  1  0
  1 22  1  1
  2 23  1  0
  2 24  1  0
  3 25  1  0
  3 26  1  0
  4 27  1  6
  5 28  1  0
  5 29  1  0
  6 30  1  6
  7 31  1  0
  7 32  1  0
 12 33  1  0
 13 34  1  0
 16 35  1  0
 17 36  1  0
 18 37  1  0
 21 38  1  0
 21 39  1  0
 21 40  1  0
M  END
$$$$
