
     RDKit          3D

 35 36  0  0  0  0  0  0  0  0999 V2000
    7.5251   -1.0180    0.8765 O   0  0  0  0  0  0  0  0  0  0  0  0
    6.2470   -0.5726    0.5455 C   0  0  0  0  0  0  0  0  0  0  0  0
    6.0737    0.5260   -0.3066 C   0  0  0  0  0  0  0  0  0  0  0  0
    4.7877    0.9664   -0.6337 C   0  0  0  0  0  0  0  0  0  0  0  0
    3.6592    0.3137   -0.1126 C   0  0  0  0  0  0  0  0  0  0  0  0
    2.3115    0.7977   -0.4728 C   0  0  0  0  0  0  0  0  0  0  0  0
    1.2478    0.2219   -0.0123 N   0  0  0  0  0  0  0  0  0  0  0  0
   -0.0032    0.6830   -0.3560 O   0  0  0  0  0  0  0  0  0  0  0  0
   -1.1537    0.0681    0.1355 C   0  0  0  0  0  0  0  0  0  0  0  0
   -1.0619   -0.9325    0.8986 O   0  0  0  0  0  0  0  0  0  0  0  0
   -2.5053    0.5909   -0.2698 C   0  0  0  0  0  0  0  0  0  0  0  0
   -3.3792    0.9233    0.9698 C   0  0  0  0  0  0  0  0  0  0  0  0
   -4.3700   -0.2009    1.2952 C   0  0  0  0  0  0  0  0  0  0  0  0
   -5.3323   -0.4708    0.1207 C   0  0  0  0  0  0  0  0  0  0  0  0
   -4.7070   -0.1992   -1.2633 C   0  0  0  0  0  0  0  0  0  0  0  0
   -3.1882   -0.3974   -1.2465 C   0  0  0  0  0  0  0  0  0  0  0  0
    3.8393   -0.7893    0.7429 C   0  0  0  0  0  0  0  0  0  0  0  0
    5.1270   -1.2281    1.0687 C   0  0  0  0  0  0  0  0  0  0  0  0
    5.2861   -2.2924    1.8944 F   0  0  0  0  0  0  0  0  0  0  0  0
    8.3549   -0.5637    0.5133 H   0  0  0  0  0  0  0  0  0  0  0  0
    6.9346    1.0392   -0.7161 H   0  0  0  0  0  0  0  0  0  0  0  0
    4.6740    1.8175   -1.2942 H   0  0  0  0  0  0  0  0  0  0  0  0
    2.2109    1.6504   -1.1348 H   0  0  0  0  0  0  0  0  0  0  0  0
   -2.3424    1.5462   -0.8177 H   0  0  0  0  0  0  0  0  0  0  0  0
   -3.9600    1.8508    0.7682 H   0  0  0  0  0  0  0  0  0  0  0  0
   -2.7471    1.1318    1.8612 H   0  0  0  0  0  0  0  0  0  0  0  0
   -4.9565    0.0700    2.1996 H   0  0  0  0  0  0  0  0  0  0  0  0
   -3.8021   -1.1276    1.5306 H   0  0  0  0  0  0  0  0  0  0  0  0
   -6.2373    0.1654    0.2325 H   0  0  0  0  0  0  0  0  0  0  0  0
   -5.6658   -1.5302    0.1729 H   0  0  0  0  0  0  0  0  0  0  0  0
   -4.9307    0.8454   -1.5736 H   0  0  0  0  0  0  0  0  0  0  0  0
   -5.1631   -0.8775   -2.0164 H   0  0  0  0  0  0  0  0  0  0  0  0
   -2.9763   -1.4511   -0.9565 H   0  0  0  0  0  0  0  0  0  0  0  0
   -2.7840   -0.2450   -2.2710 H   0  0  0  0  0  0  0  0  0  0  0  0
    2.9872   -1.3118    1.1594 H   0  0  0  0  0  0  0  0  0  0  0  0
  1  2  1  0
  2  3  2  0
  3  4  1  0
  4  5  2  0
  5  6  1  0
  6  7  2  0
  7  8  1  0
  8  9  1  0
  9 10  2  0
  9 11  1  0
 11 12  1  0
 12 13  1  0
 13 14  1  0
 14 15  1  0
 15 16  1  0
  5 17  1  0
 17 18  2  0
 18 19  1  0
 18  2  1  0
 16 11  1  0
  1 20  1  0
  3 21  1  0
  4 22  1  0
  6 23  1  0
 11 24  1  0
 12 25  1  0
 12 26  1  0
 13 27  1  0
 13 28  1  0
 14 29  1  0
 14 30  1  0
 15 31  1  0
 15 32  1  0
 16 33  1  0
 16 34  1  0
 17 35  1  0
M  END
$$$$
