
     RDKit          3D

 50 53  0  0  0  0  0  0  0  0999 V2000
    5.4112    2.1657   -0.1949 C   0  0  0  0  0  0  0  0  0  0  0  0
    4.0117    1.6862   -0.3896 C   0  0  0  0  0  0  0  0  0  0  0  0
    3.7755    0.3856   -0.6998 N   0  0  0  0  0  0  0  0  0  0  0  0
    2.5134   -0.0666   -0.9118 C   0  0  0  0  0  0  0  0  0  0  0  0
    1.4240    0.8166   -0.8244 C   0  0  0  0  0  0  0  0  0  0  0  0
    0.0933    0.4052   -1.0205 O   0  0  0  0  0  0  0  0  0  0  0  0
   -0.3231   -0.9291   -1.3187 C   0  0  0  0  0  0  0  0  0  0  0  0
   -0.3588   -1.8519   -0.0738 C   0  0  1  0  0  0  0  0  0  0  0  0
    0.0023   -1.2894    1.3056 C   0  0  0  0  0  0  0  0  0  0  0  0
   -1.4543   -1.6072    0.9813 C   0  0  1  0  0  0  0  0  0  0  0  0
   -2.3439   -0.4100    0.7899 C   0  0  0  0  0  0  0  0  0  0  0  0
   -3.2614   -0.4656   -0.0722 O   0  0  0  0  0  0  0  0  0  0  0  0
   -2.2263    0.7335    1.6499 N   0  0  0  0  0  0  0  0  0  0  0  0
   -2.7219    2.0422    1.3268 C   0  0  0  0  0  0  0  0  0  0  0  0
   -2.9922    2.9134    2.3383 N   0  0  0  0  0  0  0  0  0  0  0  0
   -3.4272    4.1803    2.1046 C   0  0  0  0  0  0  0  0  0  0  0  0
   -3.5975    4.6299    0.7941 C   0  0  0  0  0  0  0  0  0  0  0  0
   -4.0257    5.8935    0.5532 F   0  0  0  0  0  0  0  0  0  0  0  0
   -3.3106    3.7684   -0.2651 C   0  0  0  0  0  0  0  0  0  0  0  0
   -2.8670    2.4703   -0.0055 C   0  0  0  0  0  0  0  0  0  0  0  0
   -0.0512   -3.3092   -0.3018 C   0  0  0  0  0  0  0  0  0  0  0  0
   -1.0465   -4.1688   -0.7944 C   0  0  0  0  0  0  0  0  0  0  0  0
   -0.7546   -5.5128   -1.0458 C   0  0  0  0  0  0  0  0  0  0  0  0
    0.5345   -6.0036   -0.8203 C   0  0  0  0  0  0  0  0  0  0  0  0
    1.5354   -5.1497   -0.3476 C   0  0  0  0  0  0  0  0  0  0  0  0
    2.7878   -5.6247   -0.1381 F   0  0  0  0  0  0  0  0  0  0  0  0
    1.2468   -3.8048   -0.0948 C   0  0  0  0  0  0  0  0  0  0  0  0
    1.6939    2.1606   -0.5214 C   0  0  0  0  0  0  0  0  0  0  0  0
    0.5843    3.1558   -0.3794 C   0  0  0  0  0  0  0  0  0  0  0  0
    2.9759    2.5611   -0.3103 N   0  0  0  0  0  0  0  0  0  0  0  0
    6.0417    1.3498    0.2172 H   0  0  0  0  0  0  0  0  0  0  0  0
    5.8285    2.4922   -1.1700 H   0  0  0  0  0  0  0  0  0  0  0  0
    5.4280    3.0204    0.5139 H   0  0  0  0  0  0  0  0  0  0  0  0
    2.3723   -1.1112   -1.1431 H   0  0  0  0  0  0  0  0  0  0  0  0
   -1.3366   -0.8916   -1.7669 H   0  0  0  0  0  0  0  0  0  0  0  0
    0.3299   -1.3611   -2.1065 H   0  0  0  0  0  0  0  0  0  0  0  0
    0.4516   -2.0111    2.0206 H   0  0  0  0  0  0  0  0  0  0  0  0
    0.2412   -0.2094    1.3751 H   0  0  0  0  0  0  0  0  0  0  0  0
   -1.8567   -2.4904    1.5229 H   0  0  0  0  0  0  0  0  0  0  0  0
   -1.7899    0.5976    2.5895 H   0  0  0  0  0  0  0  0  0  0  0  0
   -3.6358    4.8389    2.9371 H   0  0  0  0  0  0  0  0  0  0  0  0
   -3.4205    4.1084   -1.2868 H   0  0  0  0  0  0  0  0  0  0  0  0
   -2.6079    1.8279   -0.8359 H   0  0  0  0  0  0  0  0  0  0  0  0
   -2.0460   -3.7966   -0.9831 H   0  0  0  0  0  0  0  0  0  0  0  0
   -1.5266   -6.1729   -1.4196 H   0  0  0  0  0  0  0  0  0  0  0  0
    0.7580   -7.0442   -1.0172 H   0  0  0  0  0  0  0  0  0  0  0  0
    2.0318   -3.1513    0.2642 H   0  0  0  0  0  0  0  0  0  0  0  0
    0.0246    2.9532    0.5571 H   0  0  0  0  0  0  0  0  0  0  0  0
   -0.1060    3.0882   -1.2466 H   0  0  0  0  0  0  0  0  0  0  0  0
    0.9907    4.1884   -0.3353 H   0  0  0  0  0  0  0  0  0  0  0  0
  1  2  1  0
  2  3  2  0
  3  4  1  0
  4  5  2  0
  5  6  1  0
  6  7  1  0
  8  7  1  6
  8  9  1  0
  9 10  1  0
 10 11  1  0
 11 12  2  0
 11 13  1  0
 13 14  1  0
 14 15  2  0
 15 16  1  0
 16 17  2  0
 17 18  1  0
 17 19  1  0
 19 20  2  0
  8 21  1  0
 21 22  2  0
 22 23  1  0
 23 24  2  0
 24 25  1  0
 25 26  1  0
 25 27  2  0
  5 28  1  0
 28 29  1  0
 28 30  2  0
 30  2  1  0
 10  8  1  0
 20 14  1  0
 27 21  1  0
  1 31  1  0
  1 32  1  0
  1 33  1  0
  4 34  1  0
  7 35  1  0
  7 36  1  0
  9 37  1  0
  9 38  1  0
 10 39  1  1
 13 40  1  0
 16 41  1  0
 19 42  1  0
 20 43  1  0
 22 44  1  0
 23 45  1  0
 24 46  1  0
 27 47  1  0
 29 48  1  0
 29 49  1  0
 29 50  1  0
M  END
$$$$
