
     RDKit          3D

 43 46  0  0  0  0  0  0  0  0999 V2000
    7.7906   -1.5726    0.0496 O   0  0  0  0  0  1  0  0  0  0  0  0
    7.0966   -1.2554    1.1949 N   0  0  0  0  0  4  0  0  0  0  0  0
    7.5911   -1.5585    2.3006 O   0  0  0  0  0  0  0  0  0  0  0  0
    5.8238   -0.5875    1.1180 C   0  0  0  0  0  0  0  0  0  0  0  0
    5.1126   -0.2621    2.2872 C   0  0  0  0  0  0  0  0  0  0  0  0
    3.8854    0.3995    2.2070 C   0  0  0  0  0  0  0  0  0  0  0  0
    3.3468    0.7334    0.9633 C   0  0  0  0  0  0  0  0  0  0  0  0
    4.0264    0.3864   -0.2183 C   0  0  0  0  0  0  0  0  0  0  0  0
    5.2729   -0.2474   -0.1311 C   0  0  0  0  0  0  0  0  0  0  0  0
    3.5196    0.7360   -1.5173 N   0  0  0  0  0  0  0  0  0  0  0  0
    2.2752    0.7067   -1.8934 C   0  0  0  0  0  0  0  0  0  0  0  0
    1.9351    1.1228   -3.2136 N   0  0  0  0  0  0  0  0  0  0  0  0
    0.7117    1.0809   -3.6407 C   0  0  0  0  0  0  0  0  0  0  0  0
   -0.4265    0.6012   -2.7764 C   0  0  0  0  0  0  0  0  0  0  0  0
    0.0015    0.1288   -1.3969 C   0  0  0  0  0  0  0  0  0  0  0  0
    1.2498    0.1970   -1.0372 N   0  0  0  0  0  0  0  0  0  0  0  0
   -1.0002   -0.4091   -0.4293 C   0  0  0  0  0  0  0  0  0  0  0  0
   -0.5891   -0.8565    0.8434 C   0  0  0  0  0  0  0  0  0  0  0  0
   -1.5193   -1.3496    1.7608 C   0  0  0  0  0  0  0  0  0  0  0  0
   -2.8717   -1.4105    1.4263 C   0  0  0  0  0  0  0  0  0  0  0  0
   -3.3043   -0.9880    0.1624 C   0  0  0  0  0  0  0  0  0  0  0  0
   -4.7675   -1.0120   -0.1829 C   0  0  0  0  0  0  0  0  0  0  0  0
   -5.3727    0.2758    0.1362 N   0  0  0  0  0  0  0  0  0  0  0  0
   -5.8657    0.6618    1.3239 C   0  0  0  0  0  0  0  0  0  0  0  0
   -6.2786    1.9431    1.2841 N   0  0  0  0  0  0  0  0  0  0  0  0
   -5.9965    2.3009    0.0114 C   0  0  0  0  0  0  0  0  0  0  0  0
   -5.4371    1.2990   -0.6949 N   0  0  0  0  0  0  0  0  0  0  0  0
   -2.3713   -0.4771   -0.7544 C   0  0  0  0  0  0  0  0  0  0  0  0
    5.5104   -0.5089    3.2631 H   0  0  0  0  0  0  0  0  0  0  0  0
    3.3551    0.6643    3.1128 H   0  0  0  0  0  0  0  0  0  0  0  0
    2.4170    1.2851    0.9298 H   0  0  0  0  0  0  0  0  0  0  0  0
    5.8045   -0.4846   -1.0440 H   0  0  0  0  0  0  0  0  0  0  0  0
    0.4959    1.4096   -4.6486 H   0  0  0  0  0  0  0  0  0  0  0  0
   -1.1490    1.4370   -2.6645 H   0  0  0  0  0  0  0  0  0  0  0  0
   -0.9283   -0.2359   -3.3061 H   0  0  0  0  0  0  0  0  0  0  0  0
    0.4525   -0.8224    1.1370 H   0  0  0  0  0  0  0  0  0  0  0  0
   -1.1901   -1.6820    2.7370 H   0  0  0  0  0  0  0  0  0  0  0  0
   -3.5819   -1.7850    2.1532 H   0  0  0  0  0  0  0  0  0  0  0  0
   -4.9019   -1.2290   -1.2652 H   0  0  0  0  0  0  0  0  0  0  0  0
   -5.2869   -1.8210    0.3765 H   0  0  0  0  0  0  0  0  0  0  0  0
   -5.9159    0.0327    2.2034 H   0  0  0  0  0  0  0  0  0  0  0  0
   -6.1907    3.2851   -0.3930 H   0  0  0  0  0  0  0  0  0  0  0  0
   -2.7294   -0.1321   -1.7151 H   0  0  0  0  0  0  0  0  0  0  0  0
  1  2  1  0
  2  3  2  0
  2  4  1  0
  4  5  2  0
  5  6  1  0
  6  7  2  0
  7  8  1  0
  8  9  2  0
  8 10  1  0
 10 11  2  0
 11 12  1  0
 12 13  2  0
 13 14  1  0
 14 15  1  0
 15 16  2  0
 15 17  1  0
 17 18  2  0
 18 19  1  0
 19 20  2  0
 20 21  1  0
 21 22  1  0
 22 23  1  0
 23 24  1  0
 24 25  2  0
 25 26  1  0
 26 27  2  0
 21 28  2  0
  9  4  1  0
 16 11  1  0
 28 17  1  0
 27 23  1  0
  5 29  1  0
  6 30  1  0
  7 31  1  0
  9 32  1  0
 13 33  1  0
 14 34  1  0
 14 35  1  0
 18 36  1  0
 19 37  1  0
 20 38  1  0
 22 39  1  0
 22 40  1  0
 24 41  1  0
 26 42  1  0
 28 43  1  0
M  CHG  2   1  -1   2   1
M  END
$$$$
