
     RDKit          3D

 22 22  0  0  0  0  0  0  0  0999 V2000
    1.5722   -1.3160   -0.2727 C   0  0  1  0  0  0  0  0  0  0  0  0
    2.6487   -2.1286    0.1239 O   0  0  0  0  0  0  0  0  0  0  0  0
    0.8845   -0.6840    0.9535 C   0  0  0  0  0  0  0  0  0  0  0  0
   -0.3959    0.0171    0.5747 C   0  0  0  0  0  0  0  0  0  0  0  0
   -0.4046    1.4013    0.3320 C   0  0  0  0  0  0  0  0  0  0  0  0
   -1.5873    2.0419   -0.0502 C   0  0  0  0  0  0  0  0  0  0  0  0
   -2.7662    1.3061   -0.1987 C   0  0  0  0  0  0  0  0  0  0  0  0
   -2.7637   -0.0723    0.0319 C   0  0  0  0  0  0  0  0  0  0  0  0
   -1.5831   -0.7170    0.4137 C   0  0  0  0  0  0  0  0  0  0  0  0
    2.0378   -0.2713   -1.2510 C   0  0  0  0  0  0  0  0  0  0  0  0
    1.3767   -0.1196   -2.4660 O   0  0  0  0  0  0  0  0  0  0  0  0
    3.0036    0.4861   -0.9635 O   0  0  0  0  0  0  0  0  0  0  0  0
    0.8365   -1.9724   -0.7869 H   0  0  0  0  0  0  0  0  0  0  0  0
    3.2757   -1.5674    0.6519 H   0  0  0  0  0  0  0  0  0  0  0  0
    0.6557   -1.4836    1.6918 H   0  0  0  0  0  0  0  0  0  0  0  0
    1.5779    0.0261    1.4565 H   0  0  0  0  0  0  0  0  0  0  0  0
    0.5036    1.9821    0.4349 H   0  0  0  0  0  0  0  0  0  0  0  0
   -1.5892    3.1084   -0.2342 H   0  0  0  0  0  0  0  0  0  0  0  0
   -3.6806    1.8034   -0.4956 H   0  0  0  0  0  0  0  0  0  0  0  0
   -3.6762   -0.6420   -0.0884 H   0  0  0  0  0  0  0  0  0  0  0  0
   -1.5923   -1.7869    0.5815 H   0  0  0  0  0  0  0  0  0  0  0  0
    1.6662    0.5886   -3.1299 H   0  0  0  0  0  0  0  0  0  0  0  0
  1  2  1  0
  1  3  1  0
  3  4  1  0
  4  5  2  0
  5  6  1  0
  6  7  2  0
  7  8  1  0
  8  9  2  0
  1 10  1  0
 10 11  1  0
 10 12  2  0
  9  4  1  0
  1 13  1  6
  2 14  1  0
  3 15  1  0
  3 16  1  0
  5 17  1  0
  6 18  1  0
  7 19  1  0
  8 20  1  0
  9 21  1  0
 11 22  1  0
M  END
$$$$
