
     RDKit          3D

 45 48  0  0  0  0  0  0  0  0999 V2000
   -1.3487    1.9943   -1.4469 O   0  0  0  0  0  0  0  0  0  0  0  0
   -2.2572    1.1985   -0.7470 C   0  0  0  0  0  0  0  0  0  0  0  0
   -1.8169    0.1773    0.0307 C   0  0  0  0  0  0  0  0  0  0  0  0
   -0.3264   -0.1456    0.1752 C   0  0  1  0  0  0  0  0  0  0  0  0
    0.3135   -0.5778   -1.1617 C   0  0  0  0  0  0  0  0  0  0  0  0
    1.7870   -0.9592   -0.9628 C   0  0  0  0  0  0  0  0  0  0  0  0
    2.5735    0.1997   -0.3165 C   0  0  1  0  0  0  0  0  0  0  0  0
    1.9361    0.6184    1.0243 C   0  0  0  0  0  0  0  0  0  0  0  0
    0.4632    1.0063    0.8336 C   0  0  0  0  0  0  0  0  0  0  0  0
    4.0363   -0.1631   -0.1383 C   0  0  0  0  0  0  0  0  0  0  0  0
    5.0306    0.5789   -0.8019 C   0  0  0  0  0  0  0  0  0  0  0  0
    6.3814    0.2540   -0.6453 C   0  0  0  0  0  0  0  0  0  0  0  0
    6.7560   -0.8142    0.1746 C   0  0  0  0  0  0  0  0  0  0  0  0
    8.4515   -1.2195    0.3692 Cl  0  0  0  0  0  0  0  0  0  0  0  0
    5.7777   -1.5588    0.8392 C   0  0  0  0  0  0  0  0  0  0  0  0
    4.4259   -1.2376    0.6856 C   0  0  0  0  0  0  0  0  0  0  0  0
   -2.8092   -0.6600    0.7699 C   0  0  0  0  0  0  0  0  0  0  0  0
   -2.4166   -1.6132    1.4971 O   0  0  0  0  0  0  0  0  0  0  0  0
   -4.2596   -0.3839    0.6595 C   0  0  0  0  0  0  0  0  0  0  0  0
   -5.2022   -1.1666    1.3516 C   0  0  0  0  0  0  0  0  0  0  0  0
   -6.5672   -0.8926    1.2365 C   0  0  0  0  0  0  0  0  0  0  0  0
   -7.0040    0.1612    0.4326 C   0  0  0  0  0  0  0  0  0  0  0  0
   -6.0774    0.9449   -0.2590 C   0  0  0  0  0  0  0  0  0  0  0  0
   -4.7008    0.6774   -0.1500 C   0  0  0  0  0  0  0  0  0  0  0  0
   -3.7050    1.4940   -0.8729 C   0  0  0  0  0  0  0  0  0  0  0  0
   -4.0846    2.4495   -1.6030 O   0  0  0  0  0  0  0  0  0  0  0  0
   -1.6437    2.7637   -2.0355 H   0  0  0  0  0  0  0  0  0  0  0  0
   -0.2152   -1.0159    0.8578 H   0  0  0  0  0  0  0  0  0  0  0  0
    0.2590    0.2324   -1.9172 H   0  0  0  0  0  0  0  0  0  0  0  0
   -0.2345   -1.4564   -1.5668 H   0  0  0  0  0  0  0  0  0  0  0  0
    2.2327   -1.2047   -1.9515 H   0  0  0  0  0  0  0  0  0  0  0  0
    1.8419   -1.8705   -0.3283 H   0  0  0  0  0  0  0  0  0  0  0  0
    2.5006    1.0732   -1.0044 H   0  0  0  0  0  0  0  0  0  0  0  0
    1.9988   -0.2106    1.7626 H   0  0  0  0  0  0  0  0  0  0  0  0
    2.4873    1.4892    1.4418 H   0  0  0  0  0  0  0  0  0  0  0  0
    0.4194    1.9294    0.2204 H   0  0  0  0  0  0  0  0  0  0  0  0
    0.0201    1.2377    1.8268 H   0  0  0  0  0  0  0  0  0  0  0  0
    4.7630    1.4104   -1.4419 H   0  0  0  0  0  0  0  0  0  0  0  0
    7.1357    0.8336   -1.1620 H   0  0  0  0  0  0  0  0  0  0  0  0
    6.0631   -2.3870    1.4753 H   0  0  0  0  0  0  0  0  0  0  0  0
    3.6865   -1.8284    1.2101 H   0  0  0  0  0  0  0  0  0  0  0  0
   -4.8856   -1.9890    1.9808 H   0  0  0  0  0  0  0  0  0  0  0  0
   -7.2873   -1.4983    1.7714 H   0  0  0  0  0  0  0  0  0  0  0  0
   -8.0622    0.3713    0.3452 H   0  0  0  0  0  0  0  0  0  0  0  0
   -6.4371    1.7578   -0.8774 H   0  0  0  0  0  0  0  0  0  0  0  0
  1  2  1  0
  2  3  2  0
  3  4  1  0
  4  5  1  0
  5  6  1  0
  6  7  1  0
  7  8  1  0
  8  9  1  0
  7 10  1  0
 10 11  2  0
 11 12  1  0
 12 13  2  0
 13 14  1  0
 13 15  1  0
 15 16  2  0
  3 17  1  0
 17 18  2  0
 17 19  1  0
 19 20  2  0
 20 21  1  0
 21 22  2  0
 22 23  1  0
 23 24  2  0
 24 25  1  0
 25 26  2  0
 25  2  1  0
  9  4  1  0
 16 10  1  0
 24 19  1  0
  1 27  1  0
  4 28  1  1
  5 29  1  0
  5 30  1  0
  6 31  1  0
  6 32  1  0
  7 33  1  6
  8 34  1  0
  8 35  1  0
  9 36  1  0
  9 37  1  0
 11 38  1  0
 12 39  1  0
 15 40  1  0
 16 41  1  0
 20 42  1  0
 21 43  1  0
 22 44  1  0
 23 45  1  0
M  END
$$$$
