
     RDKit          3D

 41 44  0  0  0  0  0  0  0  0999 V2000
    5.2557    0.9379    1.9531 N   0  0  0  0  0  0  0  0  0  0  0  0
    5.9540    0.3936    0.8297 C   0  0  0  0  0  0  0  0  0  0  0  0
    7.2123    0.4655    0.8024 O   0  0  0  0  0  0  0  0  0  0  0  0
    5.2319   -0.2648   -0.2862 C   0  0  0  0  0  0  0  0  0  0  0  0
    3.8833    0.0345   -0.5574 C   0  0  0  0  0  0  0  0  0  0  0  0
    3.2040   -0.6025   -1.6121 C   0  0  0  0  0  0  0  0  0  0  0  0
    1.8320   -0.2944   -1.9117 N   0  0  0  0  0  0  0  0  0  0  0  0
    0.8326   -0.0206   -0.9192 C   0  0  0  0  0  0  0  0  0  0  0  0
   -0.3752    0.4728   -1.3030 N   0  0  0  0  0  0  0  0  0  0  0  0
   -1.3646    0.7127   -0.4013 C   0  0  0  0  0  0  0  0  0  0  0  0
   -2.6087    1.2655   -0.8584 N   0  0  0  0  0  0  0  0  0  0  0  0
   -3.8580    1.1271   -0.1616 C   0  0  0  0  0  0  0  0  0  0  0  0
   -4.7748    2.2031   -0.0816 C   0  0  0  0  0  0  0  0  0  0  0  0
   -4.3902    3.7729   -0.7730 Cl  0  0  0  0  0  0  0  0  0  0  0  0
   -6.0106    2.0354    0.5851 C   0  0  0  0  0  0  0  0  0  0  0  0
   -6.3497    0.7983    1.1599 C   0  0  0  0  0  0  0  0  0  0  0  0
   -5.4361   -0.2436    1.0445 C   0  0  0  0  0  0  0  0  0  0  0  0
   -4.2456   -0.0914    0.4090 C   0  0  0  0  0  0  0  0  0  0  0  0
   -3.5649   -1.2951    0.4265 O   0  0  0  0  0  0  0  0  0  0  0  0
   -4.3680   -2.2538    1.1271 C   0  0  0  0  0  0  0  0  0  0  0  0
   -5.5545   -1.5417    1.5021 O   0  0  0  0  0  0  0  0  0  0  0  0
   -1.1251    0.4669    0.9586 C   0  0  0  0  0  0  0  0  0  0  0  0
    0.1115   -0.0534    1.3346 C   0  0  0  0  0  0  0  0  0  0  0  0
    1.0607   -0.2926    0.3946 N   0  0  0  0  0  0  0  0  0  0  0  0
    3.8985   -1.5054   -2.4281 C   0  0  0  0  0  0  0  0  0  0  0  0
    5.2397   -1.7974   -2.1755 C   0  0  0  0  0  0  0  0  0  0  0  0
    5.9037   -1.1840   -1.1113 C   0  0  0  0  0  0  0  0  0  0  0  0
    5.7832    1.4469    2.6966 H   0  0  0  0  0  0  0  0  0  0  0  0
    4.2372    0.7676    2.1023 H   0  0  0  0  0  0  0  0  0  0  0  0
    3.3727    0.7955    0.0156 H   0  0  0  0  0  0  0  0  0  0  0  0
    1.5197   -0.3531   -2.9075 H   0  0  0  0  0  0  0  0  0  0  0  0
   -2.6024    1.7935   -1.7599 H   0  0  0  0  0  0  0  0  0  0  0  0
   -6.7051    2.8627    0.6551 H   0  0  0  0  0  0  0  0  0  0  0  0
   -7.2943    0.6580    1.6684 H   0  0  0  0  0  0  0  0  0  0  0  0
   -4.6247   -3.1012    0.4575 H   0  0  0  0  0  0  0  0  0  0  0  0
   -3.8339   -2.6117    2.0322 H   0  0  0  0  0  0  0  0  0  0  0  0
   -1.8711    0.6805    1.7128 H   0  0  0  0  0  0  0  0  0  0  0  0
    0.3194   -0.2632    2.3753 H   0  0  0  0  0  0  0  0  0  0  0  0
    3.3961   -1.9881   -3.2570 H   0  0  0  0  0  0  0  0  0  0  0  0
    5.7665   -2.5017   -2.8065 H   0  0  0  0  0  0  0  0  0  0  0  0
    6.9427   -1.4312   -0.9315 H   0  0  0  0  0  0  0  0  0  0  0  0
  1  2  1  0
  2  3  2  0
  2  4  1  0
  4  5  2  0
  5  6  1  0
  6  7  1  0
  7  8  1  0
  8  9  2  0
  9 10  1  0
 10 11  1  0
 11 12  1  0
 12 13  2  0
 13 14  1  0
 13 15  1  0
 15 16  2  0
 16 17  1  0
 17 18  2  0
 18 19  1  0
 19 20  1  0
 20 21  1  0
 10 22  2  0
 22 23  1  0
 23 24  2  0
  6 25  2  0
 25 26  1  0
 26 27  2  0
 27  4  1  0
 24  8  1  0
 18 12  1  0
 21 17  1  0
  1 28  1  0
  1 29  1  0
  5 30  1  0
  7 31  1  0
 11 32  1  0
 15 33  1  0
 16 34  1  0
 20 35  1  0
 20 36  1  0
 22 37  1  0
 23 38  1  0
 25 39  1  0
 26 40  1  0
 27 41  1  0
M  END
$$$$
