
     RDKit          3D

 40 42  0  0  0  0  0  0  0  0999 V2000
    5.7631    1.5711   -0.7093 C   0  0  0  0  0  0  0  0  0  0  0  0
    4.3334    1.1492   -0.5425 C   0  0  0  0  0  0  0  0  0  0  0  0
    3.9504    0.3684    0.5585 C   0  0  0  0  0  0  0  0  0  0  0  0
    2.6254   -0.0555    0.6951 C   0  0  0  0  0  0  0  0  0  0  0  0
    1.6737    0.2689   -0.2845 C   0  0  0  0  0  0  0  0  0  0  0  0
    2.0546    1.0573   -1.3797 C   0  0  0  0  0  0  0  0  0  0  0  0
    3.3797    1.4816   -1.5166 C   0  0  0  0  0  0  0  0  0  0  0  0
    0.2662   -0.1350   -0.1276 C   0  0  0  0  0  0  0  0  0  0  0  0
   -0.7589    0.7491   -0.1974 N   0  0  0  0  0  0  0  0  0  0  0  0
   -1.8906    0.1223    0.1143 N   0  0  0  0  0  0  0  0  0  0  0  0
   -1.5813   -1.1621    0.3887 C   0  0  0  0  0  0  0  0  0  0  0  0
   -0.2438   -1.3762    0.2324 C   0  0  0  0  0  0  0  0  0  0  0  0
    0.2752   -2.6630    0.4160 C   0  0  0  0  0  0  0  0  0  0  0  0
    1.6306   -2.9994    0.1167 N   0  0  0  0  0  0  0  0  0  0  0  0
   -0.5900   -3.6414    0.8159 N   0  0  0  0  0  0  0  0  0  0  0  0
   -1.9220   -3.3894    1.0084 C   0  0  0  0  0  0  0  0  0  0  0  0
   -2.4300   -2.1439    0.7796 N   0  0  0  0  0  0  0  0  0  0  0  0
   -3.2191    0.7710    0.1624 C   0  0  0  0  0  0  0  0  0  0  0  0
   -3.7803    0.7032    1.5957 C   0  0  0  0  0  0  0  0  0  0  0  0
   -4.1809    0.0659   -0.8137 C   0  0  0  0  0  0  0  0  0  0  0  0
   -3.1066    2.2556   -0.2502 C   0  0  0  0  0  0  0  0  0  0  0  0
    5.8262    2.5331   -1.2611 H   0  0  0  0  0  0  0  0  0  0  0  0
    6.3140    0.7917   -1.2759 H   0  0  0  0  0  0  0  0  0  0  0  0
    6.2484    1.7108    0.2802 H   0  0  0  0  0  0  0  0  0  0  0  0
    4.6755    0.0936    1.3146 H   0  0  0  0  0  0  0  0  0  0  0  0
    2.3415   -0.6344    1.5654 H   0  0  0  0  0  0  0  0  0  0  0  0
    1.3284    1.3328   -2.1349 H   0  0  0  0  0  0  0  0  0  0  0  0
    3.6607    2.0723   -2.3798 H   0  0  0  0  0  0  0  0  0  0  0  0
    1.9944   -3.9476    0.3586 H   0  0  0  0  0  0  0  0  0  0  0  0
    2.2253   -2.3874   -0.4814 H   0  0  0  0  0  0  0  0  0  0  0  0
   -2.5792   -4.1874    1.3249 H   0  0  0  0  0  0  0  0  0  0  0  0
   -3.0651    1.1648    2.3100 H   0  0  0  0  0  0  0  0  0  0  0  0
   -3.9565   -0.3463    1.9094 H   0  0  0  0  0  0  0  0  0  0  0  0
   -4.7483    1.2451    1.6646 H   0  0  0  0  0  0  0  0  0  0  0  0
   -5.1619    0.5877   -0.8444 H   0  0  0  0  0  0  0  0  0  0  0  0
   -3.7514    0.0603   -1.8386 H   0  0  0  0  0  0  0  0  0  0  0  0
   -4.3673   -0.9842   -0.5086 H   0  0  0  0  0  0  0  0  0  0  0  0
   -4.1010    2.7517   -0.2211 H   0  0  0  0  0  0  0  0  0  0  0  0
   -2.7051    2.3436   -1.2829 H   0  0  0  0  0  0  0  0  0  0  0  0
   -2.4271    2.8020    0.4390 H   0  0  0  0  0  0  0  0  0  0  0  0
  1  2  1  0
  2  3  2  0
  3  4  1  0
  4  5  2  0
  5  6  1  0
  6  7  2  0
  5  8  1  0
  8  9  2  0
  9 10  1  0
 10 11  1  0
 11 12  2  0
 12 13  1  0
 13 14  1  0
 13 15  2  0
 15 16  1  0
 16 17  2  0
 10 18  1  0
 18 19  1  0
 18 20  1  0
 18 21  1  0
  7  2  1  0
 12  8  1  0
 17 11  1  0
  1 22  1  0
  1 23  1  0
  1 24  1  0
  3 25  1  0
  4 26  1  0
  6 27  1  0
  7 28  1  0
 14 29  1  0
 14 30  1  0
 16 31  1  0
 19 32  1  0
 19 33  1  0
 19 34  1  0
 20 35  1  0
 20 36  1  0
 20 37  1  0
 21 38  1  0
 21 39  1  0
 21 40  1  0
M  END
$$$$
