
     RDKit          3D

107111  0  0  0  0  0  0  0  0999 V2000
   14.1313    0.1991    4.8879 C   0  0  0  0  0  0  0  0  0  0  0  0
   14.6245    0.3167    3.5572 O   0  0  0  0  0  0  0  0  0  0  0  0
   13.8178    0.3598    2.4085 C   0  0  0  0  0  0  0  0  0  0  0  0
   12.4144    0.2810    2.4760 C   0  0  0  0  0  0  0  0  0  0  0  0
   11.6365    0.3343    1.3053 C   0  0  0  0  0  0  0  0  0  0  0  0
   10.1557    0.2441    1.3324 C   0  0  0  0  0  0  0  0  0  0  0  0
    9.4114    0.6039    2.3880 C   0  0  0  0  0  0  0  0  0  0  0  0
    7.9376    0.5285    2.3966 C   0  0  0  0  0  0  0  0  0  0  0  0
    7.3150    0.9100    3.4221 O   0  0  0  0  0  0  0  0  0  0  0  0
    6.9934   -0.1152    1.0061 S   0  0  0  0  0  0  0  0  0  0  0  0
    6.8840    1.4856    0.1264 C   0  0  0  0  0  0  0  0  0  0  0  0
    5.7996    2.3881    0.7216 C   0  0  0  0  0  0  0  0  0  0  0  0
    4.4909    1.7376    0.6805 N   0  0  0  0  0  0  0  0  0  0  0  0
    3.7446    1.5761   -0.5338 C   0  0  0  0  0  0  0  0  0  0  0  0
    4.1758    2.0571   -1.6167 O   0  0  0  0  0  0  0  0  0  0  0  0
    2.4191    0.8782   -0.5130 C   0  0  0  0  0  0  0  0  0  0  0  0
    1.3048    1.8542   -0.1293 C   0  0  0  0  0  0  0  0  0  0  0  0
    0.0219    1.1591   -0.0644 N   0  0  0  0  0  0  0  0  0  0  0  0
   -0.6777    0.7207   -1.2358 C   0  0  0  0  0  0  0  0  0  0  0  0
   -0.2843    1.0659   -2.3828 O   0  0  0  0  0  0  0  0  0  0  0  0
   -1.9121   -0.1214   -1.0952 C   0  0  0  0  0  0  0  0  0  0  0  0
   -3.1055    0.5431   -0.7809 O   0  0  0  0  0  0  0  0  0  0  0  0
   -2.0543   -1.3115   -2.0518 C   0  0  2  0  0  0  0  0  0  0  0  0
   -3.3817   -1.5727   -2.4397 O   0  0  0  0  0  0  0  0  0  0  0  0
   -3.5114   -1.1922   -4.0932 P   0  0  0  0  0  5  0  0  0  0  0  0
   -2.5812   -2.2981   -4.9744 O   0  0  0  0  0  0  0  0  0  0  0  0
   -2.9808    0.2021   -4.3575 O   0  0  0  0  0  0  0  0  0  0  0  0
   -5.1338   -1.3541   -4.5953 O   0  0  0  0  0  0  0  0  0  0  0  0
   -5.9896    0.0452   -4.1318 P   0  0  0  0  0  5  0  0  0  0  0  0
   -7.6113   -0.1477   -4.5812 O   0  0  0  0  0  0  0  0  0  0  0  0
   -5.4448    1.2507   -4.8654 O   0  0  0  0  0  0  0  0  0  0  0  0
   -5.8836    0.3203   -2.4505 O   0  0  0  0  0  0  0  0  0  0  0  0
   -6.5584   -0.7175   -1.7783 C   0  0  0  0  0  0  0  0  0  0  0  0
   -6.6931   -0.3478   -0.2980 C   0  0  1  0  0  0  0  0  0  0  0  0
   -7.4823    0.8135   -0.1629 O   0  0  0  0  0  0  0  0  0  0  0  0
   -8.2861    0.6554    0.9880 C   0  0  2  0  0  0  0  0  0  0  0  0
   -7.9755   -0.6997    1.6347 C   0  0  1  0  0  0  0  0  0  0  0  0
   -9.1229   -1.3598    2.1042 O   0  0  0  0  0  0  0  0  0  0  0  0
   -7.3350   -1.4683    0.5127 C   0  0  2  0  0  0  0  0  0  0  0  0
   -6.3395   -2.3416    1.0139 O   0  0  0  0  0  0  0  0  0  0  0  0
   -6.7817   -3.9631    0.7185 P   0  0  0  0  0  5  0  0  0  0  0  0
   -8.3252   -4.2706    1.3410 O   0  0  0  0  0  0  0  0  0  0  0  0
   -5.6683   -4.9884    1.4743 O   0  0  0  0  0  0  0  0  0  0  0  0
   -6.7758   -4.2326   -0.7696 O   0  0  0  0  0  0  0  0  0  0  0  0
   -9.6997    0.7699    0.6137 N   0  0  0  0  0  0  0  0  0  0  0  0
  -10.3241    0.2514   -0.4769 C   0  0  0  0  0  0  0  0  0  0  0  0
  -11.6677    0.4734   -0.4869 N   0  0  0  0  0  0  0  0  0  0  0  0
  -11.8645    1.1532    0.6585 C   0  0  0  0  0  0  0  0  0  0  0  0
  -13.0463    1.6374    1.2077 C   0  0  0  0  0  0  0  0  0  0  0  0
  -14.3034    1.4752    0.5507 N   0  0  0  0  0  0  0  0  0  0  0  0
  -12.9686    2.2769    2.4132 N   0  0  0  0  0  0  0  0  0  0  0  0
  -11.7703    2.4352    3.0627 C   0  0  0  0  0  0  0  0  0  0  0  0
  -10.6146    1.9527    2.5139 N   0  0  0  0  0  0  0  0  0  0  0  0
  -10.6952    1.3247    1.3158 C   0  0  0  0  0  0  0  0  0  0  0  0
   -1.7831   -1.5555   -0.5584 C   0  0  0  0  0  0  0  0  0  0  0  0
   -0.3781   -2.0831   -0.2302 C   0  0  0  0  0  0  0  0  0  0  0  0
   -2.9368   -2.1069    0.2923 C   0  0  0  0  0  0  0  0  0  0  0  0
   12.2797    0.4371    0.0634 C   0  0  0  0  0  0  0  0  0  0  0  0
   13.6821    0.5175   -0.0194 C   0  0  0  0  0  0  0  0  0  0  0  0
   14.3473    0.6329   -1.2510 O   0  0  0  0  0  0  0  0  0  0  0  0
   13.7009    0.6808   -2.5189 C   0  0  0  0  0  0  0  0  0  0  0  0
   14.4447    0.4817    1.1611 C   0  0  0  0  0  0  0  0  0  0  0  0
   15.8375    0.5624    1.1125 O   0  0  0  0  0  0  0  0  0  0  0  0
   13.5740   -0.7541    5.0059 H   0  0  0  0  0  0  0  0  0  0  0  0
   13.4732    1.0605    5.1291 H   0  0  0  0  0  0  0  0  0  0  0  0
   14.9877    0.1985    5.5928 H   0  0  0  0  0  0  0  0  0  0  0  0
   11.9348    0.1520    3.4345 H   0  0  0  0  0  0  0  0  0  0  0  0
    9.6667   -0.0849    0.4244 H   0  0  0  0  0  0  0  0  0  0  0  0
    9.8841    1.0008    3.2763 H   0  0  0  0  0  0  0  0  0  0  0  0
    6.6535    1.2806   -0.9396 H   0  0  0  0  0  0  0  0  0  0  0  0
    7.8637    2.0086    0.1576 H   0  0  0  0  0  0  0  0  0  0  0  0
    5.7596    3.3465    0.1604 H   0  0  0  0  0  0  0  0  0  0  0  0
    6.0575    2.6324    1.7736 H   0  0  0  0  0  0  0  0  0  0  0  0
    4.0657    1.4208    1.5812 H   0  0  0  0  0  0  0  0  0  0  0  0
    2.4527    0.0435    0.2204 H   0  0  0  0  0  0  0  0  0  0  0  0
    2.2155    0.4427   -1.5150 H   0  0  0  0  0  0  0  0  0  0  0  0
    1.2452    2.6867   -0.8642 H   0  0  0  0  0  0  0  0  0  0  0  0
    1.5291    2.2920    0.8683 H   0  0  0  0  0  0  0  0  0  0  0  0
   -0.4033    0.9806    0.8735 H   0  0  0  0  0  0  0  0  0  0  0  0
   -3.3045    1.1240   -1.5598 H   0  0  0  0  0  0  0  0  0  0  0  0
   -1.2092   -1.5766   -2.7295 H   0  0  0  0  0  0  0  0  0  0  0  0
   -2.7507   -2.0709   -5.9234 H   0  0  0  0  0  0  0  0  0  0  0  0
   -8.0629    0.6731   -4.2592 H   0  0  0  0  0  0  0  0  0  0  0  0
   -7.5827   -0.8756   -2.1843 H   0  0  0  0  0  0  0  0  0  0  0  0
   -5.9809   -1.6640   -1.8656 H   0  0  0  0  0  0  0  0  0  0  0  0
   -5.6823   -0.1228    0.1097 H   0  0  0  0  0  0  0  0  0  0  0  0
   -8.0321    1.4671    1.7049 H   0  0  0  0  0  0  0  0  0  0  0  0
   -7.2409   -0.5590    2.4640 H   0  0  0  0  0  0  0  0  0  0  0  0
   -9.3797   -0.9072    2.9494 H   0  0  0  0  0  0  0  0  0  0  0  0
   -8.1347   -1.9533   -0.1014 H   0  0  0  0  0  0  0  0  0  0  0  0
   -8.2391   -4.1110    2.3145 H   0  0  0  0  0  0  0  0  0  0  0  0
   -4.7884   -4.7192    1.1088 H   0  0  0  0  0  0  0  0  0  0  0  0
   -9.8127   -0.2953   -1.2575 H   0  0  0  0  0  0  0  0  0  0  0  0
  -15.1754    1.8472    0.9879 H   0  0  0  0  0  0  0  0  0  0  0  0
  -14.3701    0.9865   -0.3697 H   0  0  0  0  0  0  0  0  0  0  0  0
  -11.7399    2.9434    4.0165 H   0  0  0  0  0  0  0  0  0  0  0  0
    0.3883   -1.7348   -0.9549 H   0  0  0  0  0  0  0  0  0  0  0  0
   -0.0850   -1.7452    0.7856 H   0  0  0  0  0  0  0  0  0  0  0  0
   -0.3864   -3.1929   -0.2477 H   0  0  0  0  0  0  0  0  0  0  0  0
   -2.7780   -1.8262    1.3542 H   0  0  0  0  0  0  0  0  0  0  0  0
   -2.9546   -3.2136    0.2140 H   0  0  0  0  0  0  0  0  0  0  0  0
   -3.9257   -1.7239   -0.0247 H   0  0  0  0  0  0  0  0  0  0  0  0
   11.6795    0.4647   -0.8366 H   0  0  0  0  0  0  0  0  0  0  0  0
   13.1242   -0.2528   -2.6893 H   0  0  0  0  0  0  0  0  0  0  0  0
   14.4690    0.7732   -3.3137 H   0  0  0  0  0  0  0  0  0  0  0  0
   13.0278    1.5625   -2.5714 H   0  0  0  0  0  0  0  0  0  0  0  0
   16.3451    0.6506    0.2405 H   0  0  0  0  0  0  0  0  0  0  0  0
  1  2  1  0
  2  3  1  0
  3  4  2  0
  4  5  1  0
  5  6  1  0
  6  7  2  0
  7  8  1  0
  8  9  2  0
  8 10  1  0
 10 11  1  0
 11 12  1  0
 12 13  1  0
 13 14  1  0
 14 15  2  0
 14 16  1  0
 16 17  1  0
 17 18  1  0
 18 19  1  0
 19 20  2  0
 19 21  1  0
 21 22  1  0
 21 23  1  0
 23 24  1  0
 24 25  1  0
 25 26  1  0
 25 27  2  0
 25 28  1  0
 28 29  1  0
 29 30  1  0
 29 31  2  0
 29 32  1  0
 32 33  1  0
 33 34  1  0
 34 35  1  0
 35 36  1  0
 36 37  1  0
 37 38  1  0
 37 39  1  0
 39 40  1  0
 40 41  1  0
 41 42  1  0
 41 43  1  0
 41 44  2  0
 36 45  1  0
 45 46  1  0
 46 47  2  0
 47 48  1  0
 48 49  2  0
 49 50  1  0
 49 51  1  0
 51 52  2  0
 52 53  1  0
 53 54  2  0
 23 55  1  0
 55 56  1  0
 55 57  1  0
  5 58  2  0
 58 59  1  0
 59 60  1  0
 60 61  1  0
 59 62  2  0
 62 63  1  0
 62  3  1  0
 55 21  1  0
 39 34  1  0
 54 45  1  0
 54 48  1  0
  1 64  1  0
  1 65  1  0
  1 66  1  0
  4 67  1  0
  6 68  1  0
  7 69  1  0
 11 70  1  0
 11 71  1  0
 12 72  1  0
 12 73  1  0
 13 74  1  0
 16 75  1  0
 16 76  1  0
 17 77  1  0
 17 78  1  0
 18 79  1  0
 22 80  1  0
 23 81  1  6
 26 82  1  0
 30 83  1  0
 33 84  1  0
 33 85  1  0
 34 86  1  1
 36 87  1  1
 37 88  1  1
 38 89  1  0
 39 90  1  6
 42 91  1  0
 43 92  1  0
 46 93  1  0
 50 94  1  0
 50 95  1  0
 52 96  1  0
 56 97  1  0
 56 98  1  0
 56 99  1  0
 57100  1  0
 57101  1  0
 57102  1  0
 58103  1  0
 61104  1  0
 61105  1  0
 61106  1  0
 63107  1  0
M  END
$$$$
