
     RDKit          3D

120124  0  0  0  0  0  0  0  0999 V2000
   -3.6256    9.3297    5.3152 N   0  0  0  0  0  0  0  0  0  0  0  0
   -3.8179    8.0355    4.7440 C   0  0  0  0  0  0  0  0  0  0  0  0
   -4.9737    7.2975    4.9733 C   0  0  0  0  0  0  0  0  0  0  0  0
   -6.0668    7.6190    5.6906 N   0  0  0  0  0  0  0  0  0  0  0  0
   -6.8657    6.5283    5.5256 C   0  0  0  0  0  0  0  0  0  0  0  0
   -6.3061    5.5612    4.7534 N   0  0  0  0  0  0  0  0  0  0  0  0
   -6.9322    4.3149    4.3058 C   0  0  2  0  0  0  0  0  0  0  0  0
   -5.9782    3.2732    4.3125 O   0  0  0  0  0  0  0  0  0  0  0  0
   -6.0659    2.6183    3.0697 C   0  0  2  0  0  0  0  0  0  0  0  0
   -4.6930    2.0636    2.6773 C   0  0  0  0  0  0  0  0  0  0  0  0
   -4.7947    1.3957    1.4415 O   0  0  0  0  0  0  0  0  0  0  0  0
   -3.2398    0.8629    0.9913 P   0  0  0  0  0  5  0  0  0  0  0  0
   -2.2288    2.2054    0.7885 O   0  0  0  0  0  0  0  0  0  0  0  0
   -3.3312    0.1328   -0.3305 O   0  0  0  0  0  0  0  0  0  0  0  0
   -2.5748   -0.1439    2.1950 O   0  0  0  0  0  0  0  0  0  0  0  0
   -3.4650   -1.5969    2.2136 P   0  0  0  0  0  5  0  0  0  0  0  0
   -5.1222   -1.2820    2.3698 O   0  0  0  0  0  0  0  0  0  0  0  0
   -3.0278   -2.4145    3.4082 O   0  0  0  0  0  0  0  0  0  0  0  0
   -3.1916   -2.4949    0.7872 O   0  0  0  0  0  0  0  0  0  0  0  0
   -1.8022   -2.6923    0.6387 C   0  0  0  0  0  0  0  0  0  0  0  0
   -1.5076   -3.4884   -0.6627 C   0  0  0  0  0  0  0  0  0  0  0  0
   -2.0773   -2.7137   -1.8741 C   0  0  0  0  0  0  0  0  0  0  0  0
   -2.2146   -4.8627   -0.5911 C   0  0  0  0  0  0  0  0  0  0  0  0
    0.0309   -3.7038   -0.8838 C   0  0  1  0  0  0  0  0  0  0  0  0
    0.7066   -2.4928   -1.1318 O   0  0  0  0  0  0  0  0  0  0  0  0
    0.7115   -4.4834    0.2237 C   0  0  0  0  0  0  0  0  0  0  0  0
    1.0543   -3.9016    1.2893 O   0  0  0  0  0  0  0  0  0  0  0  0
    0.9764   -5.8838    0.0552 N   0  0  0  0  0  0  0  0  0  0  0  0
    1.8824   -6.6247    0.9323 C   0  0  0  0  0  0  0  0  0  0  0  0
    3.3357   -6.1700    0.7456 C   0  0  0  0  0  0  0  0  0  0  0  0
    3.8106   -6.4003   -0.6605 C   0  0  0  0  0  0  0  0  0  0  0  0
    4.4709   -7.4398   -0.9310 O   0  0  0  0  0  0  0  0  0  0  0  0
    3.4848   -5.4613   -1.6939 N   0  0  0  0  0  0  0  0  0  0  0  0
    3.9190   -5.6561   -3.0765 C   0  0  0  0  0  0  0  0  0  0  0  0
    3.2590   -4.6463   -4.0234 C   0  0  0  0  0  0  0  0  0  0  0  0
    3.6248   -2.9064   -3.5813 S   0  0  0  0  0  0  0  0  0  0  0  0
    5.3690   -2.9056   -4.1306 C   0  0  0  0  0  0  0  0  0  0  0  0
    5.9018   -1.4744   -4.2275 C   0  0  0  0  0  0  0  0  0  0  0  0
    5.3320   -0.7271   -5.4430 C   0  0  0  0  0  0  0  0  0  0  0  0
    5.9256    0.6805   -5.5839 C   0  0  0  0  0  0  0  0  0  0  0  0
    5.4451    1.6002   -4.4984 C   0  0  0  0  0  0  0  0  0  0  0  0
    4.3143    2.1469   -4.6104 O   0  0  0  0  0  0  0  0  0  0  0  0
    6.2506    1.8277   -3.3323 N   0  0  0  0  0  0  0  0  0  0  0  0
    5.9314    2.8578   -2.3426 C   0  0  0  0  0  0  0  0  0  0  0  0
    6.1852    2.3473   -0.9221 C   0  0  0  0  0  0  0  0  0  0  0  0
    5.2738    1.2035   -0.5817 C   0  0  0  0  0  0  0  0  0  0  0  0
    3.9113    1.2889   -0.3111 C   0  0  0  0  0  0  0  0  0  0  0  0
    3.3955    0.0588   -0.0905 N   0  0  0  0  0  0  0  0  0  0  0  0
    4.4180   -0.8030   -0.2262 C   0  0  0  0  0  0  0  0  0  0  0  0
    4.3739   -2.1903   -0.1011 C   0  0  0  0  0  0  0  0  0  0  0  0
    5.5680   -2.9068   -0.2992 C   0  0  0  0  0  0  0  0  0  0  0  0
    6.7659   -2.2283   -0.6134 C   0  0  0  0  0  0  0  0  0  0  0  0
    6.7823   -0.8265   -0.7295 C   0  0  0  0  0  0  0  0  0  0  0  0
    5.5822   -0.1426   -0.5282 C   0  0  0  0  0  0  0  0  0  0  0  0
   -6.5968    3.6159    2.0487 C   0  0  1  0  0  0  0  0  0  0  0  0
   -7.3013    2.9357    1.0264 O   0  0  0  0  0  0  0  0  0  0  0  0
   -7.1449    3.7894   -0.4425 P   0  0  0  0  0  5  0  0  0  0  0  0
   -5.5246    3.7812   -0.9357 O   0  0  0  0  0  0  0  0  0  0  0  0
   -7.6845    5.3841   -0.2572 O   0  0  0  0  0  0  0  0  0  0  0  0
   -7.9855    3.1059   -1.4963 O   0  0  0  0  0  0  0  0  0  0  0  0
   -7.5066    4.4791    2.8923 C   0  0  1  0  0  0  0  0  0  0  0  0
   -8.8283    4.0029    2.8445 O   0  0  0  0  0  0  0  0  0  0  0  0
   -5.1182    6.0770    4.4092 C   0  0  0  0  0  0  0  0  0  0  0  0
   -4.1746    5.5270    3.6075 N   0  0  0  0  0  0  0  0  0  0  0  0
   -3.0328    6.2417    3.3764 C   0  0  0  0  0  0  0  0  0  0  0  0
   -2.8613    7.4806    3.9406 N   0  0  0  0  0  0  0  0  0  0  0  0
   -4.3528    9.7603    5.9286 H   0  0  0  0  0  0  0  0  0  0  0  0
   -2.7483    9.8623    5.1238 H   0  0  0  0  0  0  0  0  0  0  0  0
   -7.8553    6.4507    5.9572 H   0  0  0  0  0  0  0  0  0  0  0  0
   -7.7411    4.0441    5.0212 H   0  0  0  0  0  0  0  0  0  0  0  0
   -6.7770    1.7660    3.1734 H   0  0  0  0  0  0  0  0  0  0  0  0
   -4.3678    1.3571    3.4739 H   0  0  0  0  0  0  0  0  0  0  0  0
   -3.9682    2.9076    2.6223 H   0  0  0  0  0  0  0  0  0  0  0  0
   -1.3322    1.8220    0.6149 H   0  0  0  0  0  0  0  0  0  0  0  0
   -5.4855   -1.3578    1.4516 H   0  0  0  0  0  0  0  0  0  0  0  0
   -1.4088   -3.2616    1.5096 H   0  0  0  0  0  0  0  0  0  0  0  0
   -1.2840   -1.7101    0.5868 H   0  0  0  0  0  0  0  0  0  0  0  0
   -1.6399   -1.6940   -1.9326 H   0  0  0  0  0  0  0  0  0  0  0  0
   -1.8492   -3.2462   -2.8227 H   0  0  0  0  0  0  0  0  0  0  0  0
   -3.1810   -2.6084   -1.7997 H   0  0  0  0  0  0  0  0  0  0  0  0
   -3.3177   -4.7414   -0.5333 H   0  0  0  0  0  0  0  0  0  0  0  0
   -1.8883   -5.4306    0.3061 H   0  0  0  0  0  0  0  0  0  0  0  0
   -1.9853   -5.4702   -1.4930 H   0  0  0  0  0  0  0  0  0  0  0  0
    0.1474   -4.3052   -1.8125 H   0  0  0  0  0  0  0  0  0  0  0  0
    0.7535   -1.9793   -0.2859 H   0  0  0  0  0  0  0  0  0  0  0  0
    0.5373   -6.3927   -0.7449 H   0  0  0  0  0  0  0  0  0  0  0  0
    1.5772   -6.4792    1.9909 H   0  0  0  0  0  0  0  0  0  0  0  0
    1.8076   -7.7112    0.7074 H   0  0  0  0  0  0  0  0  0  0  0  0
    3.9823   -6.7360    1.4507 H   0  0  0  0  0  0  0  0  0  0  0  0
    3.4367   -5.0947    1.0012 H   0  0  0  0  0  0  0  0  0  0  0  0
    2.9131   -4.6250   -1.4439 H   0  0  0  0  0  0  0  0  0  0  0  0
    3.6305   -6.6770   -3.4082 H   0  0  0  0  0  0  0  0  0  0  0  0
    5.0242   -5.5793   -3.1337 H   0  0  0  0  0  0  0  0  0  0  0  0
    3.5802   -4.8467   -5.0674 H   0  0  0  0  0  0  0  0  0  0  0  0
    2.1576   -4.7849   -3.9828 H   0  0  0  0  0  0  0  0  0  0  0  0
    5.9751   -3.4548   -3.3806 H   0  0  0  0  0  0  0  0  0  0  0  0
    5.4763   -3.4162   -5.1114 H   0  0  0  0  0  0  0  0  0  0  0  0
    7.0098   -1.5154   -4.3108 H   0  0  0  0  0  0  0  0  0  0  0  0
    5.6473   -0.9280   -3.2968 H   0  0  0  0  0  0  0  0  0  0  0  0
    4.2248   -0.6578   -5.3684 H   0  0  0  0  0  0  0  0  0  0  0  0
    5.5744   -1.2994   -6.3651 H   0  0  0  0  0  0  0  0  0  0  0  0
    7.0360    0.6300   -5.5824 H   0  0  0  0  0  0  0  0  0  0  0  0
    5.6195    1.1003   -6.5666 H   0  0  0  0  0  0  0  0  0  0  0  0
    7.1798    1.3533   -3.2673 H   0  0  0  0  0  0  0  0  0  0  0  0
    6.5756    3.7434   -2.5288 H   0  0  0  0  0  0  0  0  0  0  0  0
    4.8725    3.1847   -2.4293 H   0  0  0  0  0  0  0  0  0  0  0  0
    6.0012    3.1750   -0.2040 H   0  0  0  0  0  0  0  0  0  0  0  0
    7.2482    2.0450   -0.8137 H   0  0  0  0  0  0  0  0  0  0  0  0
    3.3295    2.2011   -0.2848 H   0  0  0  0  0  0  0  0  0  0  0  0
    2.4020   -0.1696    0.1342 H   0  0  0  0  0  0  0  0  0  0  0  0
    3.4499   -2.6997    0.1361 H   0  0  0  0  0  0  0  0  0  0  0  0
    5.5697   -3.9849   -0.2136 H   0  0  0  0  0  0  0  0  0  0  0  0
    7.6769   -2.7909   -0.7697 H   0  0  0  0  0  0  0  0  0  0  0  0
    7.6967   -0.3045   -0.9774 H   0  0  0  0  0  0  0  0  0  0  0  0
   -5.7422    4.2351    1.6806 H   0  0  0  0  0  0  0  0  0  0  0  0
   -5.5060    4.3403   -1.7530 H   0  0  0  0  0  0  0  0  0  0  0  0
   -6.8875    5.8914    0.0398 H   0  0  0  0  0  0  0  0  0  0  0  0
   -7.4673    5.5364    2.5386 H   0  0  0  0  0  0  0  0  0  0  0  0
   -9.3973    4.7125    3.2424 H   0  0  0  0  0  0  0  0  0  0  0  0
   -2.2603    5.8282    2.7428 H   0  0  0  0  0  0  0  0  0  0  0  0
  1  2  1  0
  2  3  2  0
  3  4  1  0
  4  5  2  0
  5  6  1  0
  6  7  1  0
  7  8  1  0
  8  9  1  0
  9 10  1  0
 10 11  1  0
 11 12  1  0
 12 13  1  0
 12 14  2  0
 12 15  1  0
 15 16  1  0
 16 17  1  0
 16 18  2  0
 16 19  1  0
 19 20  1  0
 20 21  1  0
 21 22  1  0
 21 23  1  0
 21 24  1  0
 24 25  1  0
 24 26  1  0
 26 27  2  0
 26 28  1  0
 28 29  1  0
 29 30  1  0
 30 31  1  0
 31 32  2  0
 31 33  1  0
 33 34  1  0
 34 35  1  0
 35 36  1  0
 36 37  1  0
 37 38  1  0
 38 39  1  0
 39 40  1  0
 40 41  1  0
 41 42  2  0
 41 43  1  0
 43 44  1  0
 44 45  1  0
 45 46  1  0
 46 47  2  0
 47 48  1  0
 48 49  1  0
 49 50  2  0
 50 51  1  0
 51 52  2  0
 52 53  1  0
 53 54  2  0
  9 55  1  0
 55 56  1  0
 56 57  1  0
 57 58  1  0
 57 59  1  0
 57 60  2  0
 55 61  1  0
 61 62  1  0
  6 63  1  0
 63 64  2  0
 64 65  1  0
 65 66  2  0
 66  2  1  0
 63  3  1  0
 61  7  1  0
 54 46  1  0
 54 49  1  0
  1 67  1  0
  1 68  1  0
  5 69  1  0
  7 70  1  1
  9 71  1  1
 10 72  1  0
 10 73  1  0
 13 74  1  0
 17 75  1  0
 20 76  1  0
 20 77  1  0
 22 78  1  0
 22 79  1  0
 22 80  1  0
 23 81  1  0
 23 82  1  0
 23 83  1  0
 24 84  1  6
 25 85  1  0
 28 86  1  0
 29 87  1  0
 29 88  1  0
 30 89  1  0
 30 90  1  0
 33 91  1  0
 34 92  1  0
 34 93  1  0
 35 94  1  0
 35 95  1  0
 37 96  1  0
 37 97  1  0
 38 98  1  0
 38 99  1  0
 39100  1  0
 39101  1  0
 40102  1  0
 40103  1  0
 43104  1  0
 44105  1  0
 44106  1  0
 45107  1  0
 45108  1  0
 47109  1  0
 48110  1  0
 50111  1  0
 51112  1  0
 52113  1  0
 53114  1  0
 55115  1  6
 58116  1  0
 59117  1  0
 61118  1  6
 62119  1  0
 65120  1  0
M  END
$$$$
