
     RDKit          3D

 21 20  0  0  0  0  0  0  0  0999 V2000
   -1.3925    0.5514   -0.3664 C   0  0  2  0  0  0  0  0  0  0  0  0
   -2.0374   -0.8239   -0.5869 C   0  0  0  0  0  0  0  0  0  0  0  0
    0.0841    0.4570    0.0861 C   0  0  0  0  0  0  0  0  0  0  0  0
    1.0355   -0.0905   -1.0016 C   0  0  2  0  0  0  0  0  0  0  0  0
    0.9128   -1.5456   -1.1152 N   0  0  0  0  0  0  0  0  0  0  0  0
    2.4609    0.2843   -0.6876 C   0  0  0  0  0  0  0  0  0  0  0  0
    3.0274   -0.0815    0.5304 O   0  0  0  0  0  0  0  0  0  0  0  0
    3.1470    0.9195   -1.5325 O   0  0  0  0  0  0  0  0  0  0  0  0
   -2.1875    1.3249    0.6504 C   0  0  0  0  0  0  0  0  0  0  0  0
   -2.7890    2.5255    0.2938 O   0  0  0  0  0  1  0  0  0  0  0  0
   -2.3116    0.8943    1.8282 O   0  0  0  0  0  0  0  0  0  0  0  0
   -1.4360    1.1100   -1.3276 H   0  0  0  0  0  0  0  0  0  0  0  0
   -1.8799   -1.4809    0.2954 H   0  0  0  0  0  0  0  0  0  0  0  0
   -1.6140   -1.3117   -1.4884 H   0  0  0  0  0  0  0  0  0  0  0  0
   -3.1299   -0.7129   -0.7587 H   0  0  0  0  0  0  0  0  0  0  0  0
    0.1645   -0.1607    1.0085 H   0  0  0  0  0  0  0  0  0  0  0  0
    0.4187    1.4854    0.3544 H   0  0  0  0  0  0  0  0  0  0  0  0
    0.7601    0.3666   -1.9787 H   0  0  0  0  0  0  0  0  0  0  0  0
    1.2543   -1.9978   -0.2353 H   0  0  0  0  0  0  0  0  0  0  0  0
    1.5268   -1.8745   -1.8959 H   0  0  0  0  0  0  0  0  0  0  0  0
    3.9858    0.1609    0.7513 H   0  0  0  0  0  0  0  0  0  0  0  0
  1  2  1  0
  1  3  1  0
  3  4  1  0
  4  5  1  0
  4  6  1  0
  6  7  1  0
  6  8  2  0
  1  9  1  0
  9 10  1  0
  9 11  2  0
  1 12  1  6
  2 13  1  0
  2 14  1  0
  2 15  1  0
  3 16  1  0
  3 17  1  0
  4 18  1  6
  5 19  1  0
  5 20  1  0
  7 21  1  0
M  CHG  1  10  -1
M  END
$$$$
