
     RDKit          3D

 56 59  0  0  0  0  0  0  0  0999 V2000
    0.9328    0.2204   -1.0898 C   0  0  2  0  0  0  0  0  0  0  0  0
    1.7747    0.0411   -2.3483 C   0  0  0  0  0  0  0  0  0  0  0  0
    3.2324    0.1928   -1.8705 C   0  0  0  0  0  0  0  0  0  0  0  0
    3.1995    0.2486   -0.3073 C   0  0  2  0  0  0  0  0  0  0  0  0
    3.2840    1.5922    0.1360 O   0  0  0  0  0  0  0  0  0  0  0  0
    4.3870   -0.5075    0.3027 C   0  0  0  0  0  0  0  0  0  0  0  0
    4.7299   -1.5900   -0.1516 O   0  0  0  0  0  0  0  0  0  0  0  0
    5.1832    0.0654    1.4489 C   0  0  0  0  0  0  0  0  0  0  0  0
    4.3683    0.2368    2.5750 O   0  0  0  0  0  0  0  0  0  0  0  0
    1.7936   -0.3591    0.0451 C   0  0  2  0  0  0  0  0  0  0  0  0
    1.8589   -1.9239    0.0112 C   0  0  0  0  0  0  0  0  0  0  0  0
    1.1802    0.1129    1.3909 C   0  0  0  0  0  0  0  0  0  0  0  0
   -0.3245   -0.2608    1.5398 C   0  0  2  0  0  0  0  0  0  0  0  0
   -0.4639   -1.6229    1.8428 O   0  0  0  0  0  0  0  0  0  0  0  0
   -1.1824    0.1342    0.2870 C   0  0  1  0  0  0  0  0  0  0  0  0
   -0.5235   -0.2935   -1.0803 C   0  0  1  0  0  0  0  0  0  0  0  0
   -1.3111    0.2842   -2.2851 C   0  0  0  0  0  0  0  0  0  0  0  0
   -2.7988   -0.0807   -2.2273 C   0  0  0  0  0  0  0  0  0  0  0  0
   -3.3497    0.3713   -0.8994 C   0  0  0  0  0  0  0  0  0  0  0  0
   -4.0777    1.5037   -0.8569 C   0  0  0  0  0  0  0  0  0  0  0  0
   -4.3151    2.2266    0.3996 C   0  0  0  0  0  0  0  0  0  0  0  0
   -5.0548    3.2459    0.4057 O   0  0  0  0  0  0  0  0  0  0  0  0
   -3.6092    1.8089    1.6486 C   0  0  0  0  0  0  0  0  0  0  0  0
   -3.4217    0.2934    1.6446 C   0  0  0  0  0  0  0  0  0  0  0  0
   -2.7165   -0.2427    0.3549 C   0  0  2  0  0  0  0  0  0  0  0  0
   -2.9587   -1.7780    0.3360 C   0  0  0  0  0  0  0  0  0  0  0  0
    0.8476    1.3231   -0.9487 H   0  0  0  0  0  0  0  0  0  0  0  0
    1.5244    0.8113   -3.1102 H   0  0  0  0  0  0  0  0  0  0  0  0
    1.6095   -0.9681   -2.7850 H   0  0  0  0  0  0  0  0  0  0  0  0
    3.8194   -0.6707   -2.2511 H   0  0  0  0  0  0  0  0  0  0  0  0
    3.6916    1.1113   -2.2975 H   0  0  0  0  0  0  0  0  0  0  0  0
    2.7970    2.1930   -0.4839 H   0  0  0  0  0  0  0  0  0  0  0  0
    5.6024    1.0491    1.1513 H   0  0  0  0  0  0  0  0  0  0  0  0
    6.0446   -0.5962    1.6983 H   0  0  0  0  0  0  0  0  0  0  0  0
    4.2140   -0.6687    2.9525 H   0  0  0  0  0  0  0  0  0  0  0  0
    2.3531   -2.2941   -0.9104 H   0  0  0  0  0  0  0  0  0  0  0  0
    2.4273   -2.3025    0.8870 H   0  0  0  0  0  0  0  0  0  0  0  0
    0.8744   -2.4181    0.0495 H   0  0  0  0  0  0  0  0  0  0  0  0
    1.2579    1.2183    1.4778 H   0  0  0  0  0  0  0  0  0  0  0  0
    1.7552   -0.3131    2.2402 H   0  0  0  0  0  0  0  0  0  0  0  0
   -0.6986    0.3349    2.4035 H   0  0  0  0  0  0  0  0  0  0  0  0
   -0.1701   -1.7442    2.7834 H   0  0  0  0  0  0  0  0  0  0  0  0
   -1.1533    1.2480    0.2831 H   0  0  0  0  0  0  0  0  0  0  0  0
   -0.5264   -1.3913   -1.2001 H   0  0  0  0  0  0  0  0  0  0  0  0
   -1.2124    1.3926   -2.3074 H   0  0  0  0  0  0  0  0  0  0  0  0
   -0.8899   -0.1128   -3.2338 H   0  0  0  0  0  0  0  0  0  0  0  0
   -3.3285    0.3977   -3.0804 H   0  0  0  0  0  0  0  0  0  0  0  0
   -2.9256   -1.1765   -2.3476 H   0  0  0  0  0  0  0  0  0  0  0  0
   -4.4438    1.9507   -1.7738 H   0  0  0  0  0  0  0  0  0  0  0  0
   -2.6284    2.3242    1.7137 H   0  0  0  0  0  0  0  0  0  0  0  0
   -4.2113    2.0998    2.5367 H   0  0  0  0  0  0  0  0  0  0  0  0
   -4.4370   -0.1594    1.7220 H   0  0  0  0  0  0  0  0  0  0  0  0
   -2.8854   -0.0197    2.5632 H   0  0  0  0  0  0  0  0  0  0  0  0
   -4.0229   -1.9926    0.0956 H   0  0  0  0  0  0  0  0  0  0  0  0
   -2.3395   -2.3114   -0.4084 H   0  0  0  0  0  0  0  0  0  0  0  0
   -2.7623   -2.2339    1.3283 H   0  0  0  0  0  0  0  0  0  0  0  0
  1  2  1  0
  2  3  1  0
  3  4  1  0
  4  5  1  6
  4  6  1  0
  6  7  2  0
  6  8  1  0
  8  9  1  0
  4 10  1  0
 10 11  1  1
 10 12  1  0
 12 13  1  0
 13 14  1  0
 13 15  1  0
 15 16  1  0
 16 17  1  0
 17 18  1  0
 18 19  1  0
 19 20  2  0
 20 21  1  0
 21 22  2  0
 21 23  1  0
 23 24  1  0
 24 25  1  0
 25 26  1  6
 10  1  1  0
 25 15  1  0
 16  1  1  0
 25 19  1  0
  1 27  1  1
  2 28  1  0
  2 29  1  0
  3 30  1  0
  3 31  1  0
  5 32  1  0
  8 33  1  0
  8 34  1  0
  9 35  1  0
 11 36  1  0
 11 37  1  0
 11 38  1  0
 12 39  1  0
 12 40  1  0
 13 41  1  1
 14 42  1  0
 15 43  1  6
 16 44  1  6
 17 45  1  0
 17 46  1  0
 18 47  1  0
 18 48  1  0
 20 49  1  0
 23 50  1  0
 23 51  1  0
 24 52  1  0
 24 53  1  0
 26 54  1  0
 26 55  1  0
 26 56  1  0
M  END
$$$$
