
     RDKit          3D

 52 53  0  0  0  0  0  0  0  0999 V2000
    5.9192    1.3637   -0.1940 C   0  0  2  0  0  0  0  0  0  0  0  0
    5.7294    2.8472   -0.5732 C   0  0  0  0  0  0  0  0  0  0  0  0
    5.3135    2.9842   -2.0059 C   0  0  0  0  0  0  0  0  0  0  0  0
    3.9622    2.9880   -2.3378 O   0  0  0  0  0  0  0  0  0  0  0  0
    6.1853    3.0546   -2.9131 O   0  0  0  0  0  0  0  0  0  0  0  0
    4.6570    0.6250   -0.3201 N   0  0  0  0  0  0  0  0  0  0  0  0
    3.4884    0.8970    0.4746 C   0  0  0  0  0  0  0  0  0  0  0  0
    3.5885    1.6016    1.5159 O   0  0  0  0  0  0  0  0  0  0  0  0
    2.1655    0.3471    0.0957 C   0  0  0  0  0  0  0  0  0  0  0  0
    1.1659    0.1801    1.0705 C   0  0  0  0  0  0  0  0  0  0  0  0
   -0.0883   -0.3289    0.7218 C   0  0  0  0  0  0  0  0  0  0  0  0
   -0.3647   -0.6827   -0.6067 C   0  0  0  0  0  0  0  0  0  0  0  0
   -1.7263   -1.1924   -0.9890 C   0  0  0  0  0  0  0  0  0  0  0  0
   -2.5713   -0.0720   -1.4066 N   0  0  0  0  0  0  0  0  0  0  0  0
   -4.1024   -0.6681   -1.9716 S   0  0  0  0  0  6  0  0  0  0  0  0
   -3.8912   -1.5366   -3.1809 O   0  0  0  0  0  0  0  0  0  0  0  0
   -4.9704    0.4933   -2.3665 O   0  0  0  0  0  0  0  0  0  0  0  0
   -4.9111   -1.5822   -0.6995 C   0  0  0  0  0  0  0  0  0  0  0  0
   -5.4724   -0.9075    0.3908 C   0  0  0  0  0  0  0  0  0  0  0  0
   -6.0915   -1.6154    1.4367 C   0  0  0  0  0  0  0  0  0  0  0  0
   -6.5970   -0.8500    2.5977 C   0  0  0  0  0  0  0  0  0  0  0  0
   -7.0711    0.4469    2.4188 O   0  0  0  0  0  0  0  0  0  0  0  0
   -6.5526   -1.3360    3.7593 O   0  0  0  0  0  0  0  0  0  0  0  0
   -6.1755   -3.0288    1.3533 C   0  0  0  0  0  0  0  0  0  0  0  0
   -6.8562   -3.8010    2.2972 O   0  0  0  0  0  0  0  0  0  0  0  0
   -5.5868   -3.6940    0.2717 C   0  0  0  0  0  0  0  0  0  0  0  0
   -4.9573   -2.9789   -0.7473 C   0  0  0  0  0  0  0  0  0  0  0  0
    0.6189   -0.4907   -1.5876 C   0  0  0  0  0  0  0  0  0  0  0  0
    1.8741    0.0169   -1.2403 C   0  0  0  0  0  0  0  0  0  0  0  0
    6.5354    1.1215    1.1742 C   0  0  0  0  0  0  0  0  0  0  0  0
    6.6485    2.1693    2.2502 C   0  0  0  0  0  0  0  0  0  0  0  0
    6.9609    0.0033    1.4222 O   0  0  0  0  0  0  0  0  0  0  0  0
    6.6411    0.9416   -0.9303 H   0  0  0  0  0  0  0  0  0  0  0  0
    6.6849    3.3962   -0.4238 H   0  0  0  0  0  0  0  0  0  0  0  0
    4.9541    3.3236    0.0625 H   0  0  0  0  0  0  0  0  0  0  0  0
    3.6642    3.0582   -3.3034 H   0  0  0  0  0  0  0  0  0  0  0  0
    4.6256   -0.1531   -1.0163 H   0  0  0  0  0  0  0  0  0  0  0  0
    1.3562    0.4370    2.1053 H   0  0  0  0  0  0  0  0  0  0  0  0
   -0.8446   -0.4458    1.4884 H   0  0  0  0  0  0  0  0  0  0  0  0
   -1.6208   -1.9237   -1.8205 H   0  0  0  0  0  0  0  0  0  0  0  0
   -2.1849   -1.7261   -0.1264 H   0  0  0  0  0  0  0  0  0  0  0  0
   -2.7693    0.5186   -0.5657 H   0  0  0  0  0  0  0  0  0  0  0  0
   -5.3974    0.1726    0.4362 H   0  0  0  0  0  0  0  0  0  0  0  0
   -7.4006    0.9936    3.2054 H   0  0  0  0  0  0  0  0  0  0  0  0
   -7.4522   -3.4100    3.0136 H   0  0  0  0  0  0  0  0  0  0  0  0
   -5.6358   -4.7740    0.2114 H   0  0  0  0  0  0  0  0  0  0  0  0
   -4.5103   -3.5168   -1.5733 H   0  0  0  0  0  0  0  0  0  0  0  0
    0.4111   -0.7278   -2.6239 H   0  0  0  0  0  0  0  0  0  0  0  0
    2.6022    0.1749   -2.0249 H   0  0  0  0  0  0  0  0  0  0  0  0
    6.1833    1.7876    3.1833 H   0  0  0  0  0  0  0  0  0  0  0  0
    7.7206    2.3793    2.4465 H   0  0  0  0  0  0  0  0  0  0  0  0
    6.1461    3.1194    1.9892 H   0  0  0  0  0  0  0  0  0  0  0  0
  1  2  1  0
  2  3  1  0
  3  4  1  0
  3  5  2  0
  1  6  1  0
  6  7  1  0
  7  8  2  0
  7  9  1  0
  9 10  2  0
 10 11  1  0
 11 12  2  0
 12 13  1  0
 13 14  1  0
 14 15  1  0
 15 16  2  0
 15 17  2  0
 15 18  1  0
 18 19  2  0
 19 20  1  0
 20 21  1  0
 21 22  1  0
 21 23  2  0
 20 24  2  0
 24 25  1  0
 24 26  1  0
 26 27  2  0
 12 28  1  0
 28 29  2  0
  1 30  1  0
 30 31  1  0
 30 32  2  0
 29  9  1  0
 27 18  1  0
  1 33  1  6
  2 34  1  0
  2 35  1  0
  4 36  1  0
  6 37  1  0
 10 38  1  0
 11 39  1  0
 13 40  1  0
 13 41  1  0
 14 42  1  0
 19 43  1  0
 22 44  1  0
 25 45  1  0
 26 46  1  0
 27 47  1  0
 28 48  1  0
 29 49  1  0
 31 50  1  0
 31 51  1  0
 31 52  1  0
M  END
$$$$
