
     RDKit          3D

 14 13  0  0  0  0  0  0  0  0999 V2000
    2.2154    0.4973    0.2593 N   0  0  0  0  0  0  0  0  0  0  0  0
    0.9706    0.1228   -0.4039 C   0  0  0  0  0  0  0  0  0  0  0  0
   -0.1285   -0.1064    0.6327 C   0  0  0  0  0  0  0  0  0  0  0  0
   -1.6682   -0.5404   -0.1602 S   0  0  0  0  0  6  0  0  0  0  0  0
   -2.1270    0.6733   -1.2295 O   0  0  0  0  0  0  0  0  0  0  0  0
   -1.4983   -1.8277   -0.9166 O   0  0  0  0  0  0  0  0  0  0  0  0
   -2.7366   -0.7187    0.8815 O   0  0  0  0  0  0  0  0  0  0  0  0
    2.5800   -0.3410    0.7681 H   0  0  0  0  0  0  0  0  0  0  0  0
    2.9166    0.7208   -0.4837 H   0  0  0  0  0  0  0  0  0  0  0  0
    0.6638    0.9424   -1.0900 H   0  0  0  0  0  0  0  0  0  0  0  0
    1.1269   -0.8018   -1.0036 H   0  0  0  0  0  0  0  0  0  0  0  0
    0.1651   -0.9290    1.3193 H   0  0  0  0  0  0  0  0  0  0  0  0
   -0.2801    0.8189    1.2283 H   0  0  0  0  0  0  0  0  0  0  0  0
   -2.1997    1.4896   -0.6731 H   0  0  0  0  0  0  0  0  0  0  0  0
  1  2  1  0
  2  3  1  0
  3  4  1  0
  4  5  1  0
  4  6  2  0
  4  7  2  0
  1  8  1  0
  1  9  1  0
  2 10  1  0
  2 11  1  0
  3 12  1  0
  3 13  1  0
  5 14  1  0
M  END
$$$$
