
     RDKit          3D

 34 36  0  0  0  0  0  0  0  0999 V2000
    7.1105    1.7287    0.8830 Cl  0  0  0  0  0  0  0  0  0  0  0  0
    5.5140    1.0513    0.6194 C   0  0  0  0  0  0  0  0  0  0  0  0
    5.3714   -0.3023    0.3038 C   0  0  0  0  0  0  0  0  0  0  0  0
    4.0998   -0.8440    0.0934 C   0  0  0  0  0  0  0  0  0  0  0  0
    2.9521   -0.0359    0.1964 C   0  0  0  0  0  0  0  0  0  0  0  0
    3.1085    1.3272    0.5151 C   0  0  0  0  0  0  0  0  0  0  0  0
    4.3825    1.8644    0.7246 C   0  0  0  0  0  0  0  0  0  0  0  0
    1.6099   -0.6256   -0.0298 C   0  0  0  0  0  0  0  0  0  0  0  0
    1.4060   -1.9243   -0.3372 N   0  0  0  0  0  0  0  0  0  0  0  0
    0.1037   -2.1125   -0.4699 N   0  0  0  0  0  0  0  0  0  0  0  0
   -0.5405   -0.9523   -0.2526 C   0  0  0  0  0  0  0  0  0  0  0  0
    0.3884    0.0298    0.0336 C   0  0  0  0  0  0  0  0  0  0  0  0
   -2.0364   -0.7874   -0.3189 C   0  0  0  0  0  0  0  0  0  0  0  0
   -2.5996   -0.3406    1.0395 C   0  0  0  0  0  0  0  0  0  0  0  0
   -4.1133   -0.1038    0.9380 C   0  0  0  0  0  0  0  0  0  0  0  0
   -4.4340    0.8775   -0.1090 N   0  0  0  0  0  0  0  0  0  0  0  0
   -3.9497    0.4295   -1.4230 C   0  0  0  0  0  0  0  0  0  0  0  0
   -2.4295    0.2141   -1.4165 C   0  0  0  0  0  0  0  0  0  0  0  0
    6.2450   -0.9365    0.2211 H   0  0  0  0  0  0  0  0  0  0  0  0
    4.0161   -1.8958   -0.1500 H   0  0  0  0  0  0  0  0  0  0  0  0
    2.2540    1.9831    0.6040 H   0  0  0  0  0  0  0  0  0  0  0  0
    4.4882    2.9138    0.9690 H   0  0  0  0  0  0  0  0  0  0  0  0
   -0.3338   -3.0302   -0.7075 H   0  0  0  0  0  0  0  0  0  0  0  0
    0.1902    1.0694    0.2547 H   0  0  0  0  0  0  0  0  0  0  0  0
   -2.4849   -1.7745   -0.5729 H   0  0  0  0  0  0  0  0  0  0  0  0
   -2.4027   -1.1244    1.8032 H   0  0  0  0  0  0  0  0  0  0  0  0
   -2.1073    0.5997    1.3726 H   0  0  0  0  0  0  0  0  0  0  0  0
   -4.4879    0.2713    1.9147 H   0  0  0  0  0  0  0  0  0  0  0  0
   -4.6357   -1.0636    0.7288 H   0  0  0  0  0  0  0  0  0  0  0  0
   -3.9781    1.7903    0.1288 H   0  0  0  0  0  0  0  0  0  0  0  0
   -4.2039    1.1973   -2.1851 H   0  0  0  0  0  0  0  0  0  0  0  0
   -4.4664   -0.5116   -1.7151 H   0  0  0  0  0  0  0  0  0  0  0  0
   -1.9258    1.1915   -1.2475 H   0  0  0  0  0  0  0  0  0  0  0  0
   -2.1109   -0.1731   -2.4089 H   0  0  0  0  0  0  0  0  0  0  0  0
  1  2  1  0
  2  3  2  0
  3  4  1  0
  4  5  2  0
  5  6  1  0
  6  7  2  0
  5  8  1  0
  8  9  2  0
  9 10  1  0
 10 11  1  0
 11 12  2  0
 11 13  1  0
 13 14  1  0
 14 15  1  0
 15 16  1  0
 16 17  1  0
 17 18  1  0
  7  2  1  0
 12  8  1  0
 18 13  1  0
  3 19  1  0
  4 20  1  0
  6 21  1  0
  7 22  1  0
 10 23  1  0
 12 24  1  0
 13 25  1  0
 14 26  1  0
 14 27  1  0
 15 28  1  0
 15 29  1  0
 16 30  1  0
 17 31  1  0
 17 32  1  0
 18 33  1  0
 18 34  1  0
M  END
$$$$
