
     RDKit          3D

 42 42  0  0  0  0  0  0  0  0999 V2000
    4.5436    2.2205    1.3341 C   0  0  0  0  0  0  0  0  0  0  0  0
    4.3037    1.7592   -0.1138 C   0  0  0  0  0  0  0  0  0  0  0  0
    5.6327    1.6780   -0.8679 C   0  0  0  0  0  0  0  0  0  0  0  0
    3.6400    0.4433   -0.1708 N   0  0  0  0  0  0  0  0  0  0  0  0
    2.2142    0.5170    0.1805 C   0  0  0  0  0  0  0  0  0  0  0  0
    1.5071   -0.7865   -0.2152 C   0  0  0  0  0  0  0  0  0  0  0  0
    2.0479   -1.8524    0.5234 O   0  0  0  0  0  0  0  0  0  0  0  0
    0.0008   -0.6833    0.0517 C   0  0  0  0  0  0  0  0  0  0  0  0
   -0.6451   -1.8758   -0.3869 O   0  0  0  0  0  0  0  0  0  0  0  0
   -2.0262   -2.1415   -0.3488 C   0  0  0  0  0  0  0  0  0  0  0  0
   -2.4447   -3.3659   -0.8873 C   0  0  0  0  0  0  0  0  0  0  0  0
   -3.7942   -3.7169   -0.9070 C   0  0  0  0  0  0  0  0  0  0  0  0
   -4.7477   -2.8463   -0.3855 C   0  0  0  0  0  0  0  0  0  0  0  0
   -4.3551   -1.6235    0.1602 C   0  0  0  0  0  0  0  0  0  0  0  0
   -2.9938   -1.2519    0.1902 C   0  0  0  0  0  0  0  0  0  0  0  0
   -2.5867   -0.0282    0.7481 O   0  0  0  0  0  0  0  0  0  0  0  0
   -3.4505    1.0056    1.2214 C   0  0  0  0  0  0  0  0  0  0  0  0
   -4.1707    1.6632    0.0789 C   0  0  0  0  0  0  0  0  0  0  0  0
   -3.5034    2.2721   -0.9047 C   0  0  0  0  0  0  0  0  0  0  0  0
    5.1360    1.4664    1.8950 H   0  0  0  0  0  0  0  0  0  0  0  0
    3.5788    2.3844    1.8564 H   0  0  0  0  0  0  0  0  0  0  0  0
    5.0959    3.1844    1.3415 H   0  0  0  0  0  0  0  0  0  0  0  0
    3.6830    2.5247   -0.6320 H   0  0  0  0  0  0  0  0  0  0  0  0
    6.3121    0.9439   -0.3837 H   0  0  0  0  0  0  0  0  0  0  0  0
    6.1283    2.6723   -0.8861 H   0  0  0  0  0  0  0  0  0  0  0  0
    5.4522    1.3591   -1.9166 H   0  0  0  0  0  0  0  0  0  0  0  0
    4.1194   -0.2176    0.4858 H   0  0  0  0  0  0  0  0  0  0  0  0
    1.7297    1.3594   -0.3624 H   0  0  0  0  0  0  0  0  0  0  0  0
    2.0938    0.6829    1.2741 H   0  0  0  0  0  0  0  0  0  0  0  0
    1.6685   -0.9515   -1.3071 H   0  0  0  0  0  0  0  0  0  0  0  0
    1.8694   -2.6818    0.0077 H   0  0  0  0  0  0  0  0  0  0  0  0
   -0.1678   -0.5455    1.1421 H   0  0  0  0  0  0  0  0  0  0  0  0
   -0.4096    0.1840   -0.5106 H   0  0  0  0  0  0  0  0  0  0  0  0
   -1.7135   -4.0506   -1.2985 H   0  0  0  0  0  0  0  0  0  0  0  0
   -4.1007   -4.6655   -1.3285 H   0  0  0  0  0  0  0  0  0  0  0  0
   -5.7949   -3.1201   -0.4017 H   0  0  0  0  0  0  0  0  0  0  0  0
   -5.1228   -0.9769    0.5601 H   0  0  0  0  0  0  0  0  0  0  0  0
   -4.1737    0.5990    1.9596 H   0  0  0  0  0  0  0  0  0  0  0  0
   -2.8364    1.7685    1.7448 H   0  0  0  0  0  0  0  0  0  0  0  0
   -5.2561    1.6471    0.0564 H   0  0  0  0  0  0  0  0  0  0  0  0
   -4.0454    2.7419   -1.7189 H   0  0  0  0  0  0  0  0  0  0  0  0
   -2.4179    2.3045   -0.9056 H   0  0  0  0  0  0  0  0  0  0  0  0
  1  2  1  0
  2  3  1  0
  2  4  1  0
  4  5  1  0
  5  6  1  0
  6  7  1  0
  6  8  1  0
  8  9  1  0
  9 10  1  0
 10 11  2  0
 11 12  1  0
 12 13  2  0
 13 14  1  0
 14 15  2  0
 15 16  1  0
 16 17  1  0
 17 18  1  0
 18 19  2  3
 15 10  1  0
  1 20  1  0
  1 21  1  0
  1 22  1  0
  2 23  1  0
  3 24  1  0
  3 25  1  0
  3 26  1  0
  4 27  1  0
  5 28  1  0
  5 29  1  0
  6 30  1  0
  7 31  1  0
  8 32  1  0
  8 33  1  0
 11 34  1  0
 12 35  1  0
 13 36  1  0
 14 37  1  0
 17 38  1  0
 17 39  1  0
 18 40  1  0
 19 41  1  0
 19 42  1  0
M  END
$$$$
