
     RDKit          3D

 23 24  0  0  0  0  0  0  0  0999 V2000
    0.6916    1.8921   -0.2114 O   0  0  0  0  0  0  0  0  0  0  0  0
    1.0299    0.6813   -0.1159 C   0  0  0  0  0  0  0  0  0  0  0  0
    0.0522   -0.3585   -0.2872 N   0  0  0  0  0  0  0  0  0  0  0  0
   -1.3679   -0.1420   -0.2158 C   0  0  0  0  0  0  0  0  0  0  0  0
   -2.2268   -0.9431   -0.9854 C   0  0  0  0  0  0  0  0  0  0  0  0
   -3.6121   -0.7660   -0.9159 C   0  0  0  0  0  0  0  0  0  0  0  0
   -4.1523    0.2025   -0.0663 C   0  0  0  0  0  0  0  0  0  0  0  0
   -3.3083    0.9900    0.7207 C   0  0  0  0  0  0  0  0  0  0  0  0
   -1.9221    0.8167    0.6535 C   0  0  0  0  0  0  0  0  0  0  0  0
    2.4446    0.3542    0.1294 C   0  0  0  0  0  0  0  0  0  0  0  0
    3.4214    1.2802    0.1995 N   0  0  0  0  0  0  0  0  0  0  0  0
    4.5559    0.6449    0.4421 N   0  0  0  0  0  0  0  0  0  0  0  0
    4.3251   -0.6763    0.5332 C   0  0  0  0  0  0  0  0  0  0  0  0
    2.9799   -0.9052    0.3396 C   0  0  0  0  0  0  0  0  0  0  0  0
    0.3845   -1.3050   -0.5784 H   0  0  0  0  0  0  0  0  0  0  0  0
   -1.8207   -1.6986   -1.6463 H   0  0  0  0  0  0  0  0  0  0  0  0
   -4.2668   -1.3815   -1.5193 H   0  0  0  0  0  0  0  0  0  0  0  0
   -5.2249    0.3371   -0.0117 H   0  0  0  0  0  0  0  0  0  0  0  0
   -3.7287    1.7295    1.3900 H   0  0  0  0  0  0  0  0  0  0  0  0
   -1.2899    1.4135    1.2972 H   0  0  0  0  0  0  0  0  0  0  0  0
    5.4817    1.1153    0.5474 H   0  0  0  0  0  0  0  0  0  0  0  0
    5.0835   -1.4221    0.7315 H   0  0  0  0  0  0  0  0  0  0  0  0
    2.4703   -1.8588    0.3618 H   0  0  0  0  0  0  0  0  0  0  0  0
  1  2  2  0
  2  3  1  0
  3  4  1  0
  4  5  2  0
  5  6  1  0
  6  7  2  0
  7  8  1  0
  8  9  2  0
  2 10  1  0
 10 11  2  0
 11 12  1  0
 12 13  1  0
 13 14  2  0
  9  4  1  0
 14 10  1  0
  3 15  1  0
  5 16  1  0
  6 17  1  0
  7 18  1  0
  8 19  1  0
  9 20  1  0
 12 21  1  0
 13 22  1  0
 14 23  1  0
M  END
$$$$
