
     RDKit          3D

 41 43  0  0  0  0  0  0  0  0999 V2000
    1.9218   -1.5873   -0.1287 C   0  0  1  0  0  0  0  0  0  0  0  0
    1.7824   -0.8364   -1.7911 S   0  0  0  0  0  0  0  0  0  0  0  0
    3.5713   -1.0647   -2.1513 C   0  0  0  0  0  0  0  0  0  0  0  0
    4.4726   -0.3705   -1.1544 C   0  0  0  0  0  0  0  0  0  0  0  0
    4.1951   -0.3386    0.1604 C   0  0  0  0  0  0  0  0  0  0  0  0
    2.9426   -0.8701    0.5936 N   0  0  0  0  0  0  0  0  0  0  0  0
    1.9569   -0.6041    1.6673 C   0  0  0  0  0  0  0  0  0  0  0  0
    1.9778   -0.0058    2.7744 O   0  0  0  0  0  0  0  0  0  0  0  0
    0.9019   -1.2966    0.8574 C   0  0  1  0  0  0  0  0  0  0  0  0
   -0.1425   -0.3677    0.4156 N   0  0  0  0  0  0  0  0  0  0  0  0
   -1.2991   -0.8301   -0.2962 C   0  0  0  0  0  0  0  0  0  0  0  0
   -1.3186   -1.9978   -0.7721 O   0  0  0  0  0  0  0  0  0  0  0  0
   -2.4741    0.0585   -0.4678 C   0  0  0  0  0  0  0  0  0  0  0  0
   -3.7195   -0.3516   -0.1431 C   0  0  0  0  0  0  0  0  0  0  0  0
   -4.0525   -1.6856    0.4729 C   0  0  0  0  0  0  0  0  0  0  0  0
   -3.4953   -1.7934    1.8583 C   0  0  0  0  0  0  0  0  0  0  0  0
   -2.4342   -2.6558    2.1156 O   0  0  0  0  0  0  0  0  0  0  0  0
   -3.9770   -1.0928    2.7885 O   0  0  0  0  0  0  0  0  0  0  0  0
   -2.2714    1.4426   -0.9714 C   0  0  0  0  0  0  0  0  0  0  0  0
   -1.1346    1.8516   -1.6747 C   0  0  0  0  0  0  0  0  0  0  0  0
   -1.3057    3.4800   -2.0627 S   0  0  0  0  0  0  0  0  0  0  0  0
   -2.8091    3.5934   -1.3270 C   0  0  0  0  0  0  0  0  0  0  0  0
   -3.5949    4.7805   -1.2740 N   0  0  0  0  0  0  0  0  0  0  0  0
   -3.2012    2.4221   -0.7857 N   0  0  0  0  0  0  0  0  0  0  0  0
    5.1056    0.3083    1.1276 C   0  0  0  0  0  0  0  0  0  0  0  0
    4.8222    0.2584    2.4884 O   0  0  0  0  0  0  0  0  0  0  0  0
    6.1490    0.8977    0.7345 O   0  0  0  0  0  0  0  0  0  0  0  0
    2.1660   -2.6718   -0.1831 H   0  0  0  0  0  0  0  0  0  0  0  0
    3.8035   -2.1507   -2.1528 H   0  0  0  0  0  0  0  0  0  0  0  0
    3.7814   -0.6709   -3.1675 H   0  0  0  0  0  0  0  0  0  0  0  0
    5.3854    0.0755   -1.5307 H   0  0  0  0  0  0  0  0  0  0  0  0
    0.4954   -2.1915    1.3780 H   0  0  0  0  0  0  0  0  0  0  0  0
   -0.1388    0.6137    0.7771 H   0  0  0  0  0  0  0  0  0  0  0  0
   -4.5568    0.3185   -0.2998 H   0  0  0  0  0  0  0  0  0  0  0  0
   -5.1574   -1.7879    0.5319 H   0  0  0  0  0  0  0  0  0  0  0  0
   -3.6870   -2.5167   -0.1648 H   0  0  0  0  0  0  0  0  0  0  0  0
   -2.0372   -2.7287    3.0446 H   0  0  0  0  0  0  0  0  0  0  0  0
   -0.2906    1.2340   -1.9436 H   0  0  0  0  0  0  0  0  0  0  0  0
   -3.2473    5.6630   -1.7097 H   0  0  0  0  0  0  0  0  0  0  0  0
   -4.5243    4.7756   -0.7985 H   0  0  0  0  0  0  0  0  0  0  0  0
    5.4381    0.6938    3.1647 H   0  0  0  0  0  0  0  0  0  0  0  0
  1  2  1  0
  2  3  1  0
  3  4  1  0
  4  5  2  0
  5  6  1  0
  6  7  1  0
  7  8  2  0
  7  9  1  0
  9 10  1  0
 10 11  1  0
 11 12  2  0
 11 13  1  0
 13 14  2  0
 14 15  1  0
 15 16  1  0
 16 17  1  0
 16 18  2  0
 13 19  1  0
 19 20  2  0
 20 21  1  0
 21 22  1  0
 22 23  1  0
 22 24  2  0
  5 25  1  0
 25 26  1  0
 25 27  2  0
  6  1  1  0
 24 19  1  0
  9  1  1  0
  1 28  1  6
  3 29  1  0
  3 30  1  0
  4 31  1  0
  9 32  1  1
 10 33  1  0
 14 34  1  0
 15 35  1  0
 15 36  1  0
 17 37  1  0
 20 38  1  0
 23 39  1  0
 23 40  1  0
 26 41  1  0
M  END
$$$$
