
     RDKit          3D

 18 17  0  0  0  0  0  0  0  0999 V2000
    1.5852   -0.2317    1.7093 O   0  0  0  0  0  0  0  0  0  0  0  0
    1.3870    0.1353    0.4194 N   0  0  0  0  0  0  0  0  0  0  0  0
    0.6499   -0.7623   -0.4739 C   0  0  0  0  0  0  0  0  0  0  0  0
   -0.7297   -0.1976   -0.8302 C   0  0  0  0  0  0  0  0  0  0  0  0
   -1.8147   -0.0824    0.6319 P   0  0  0  0  0  5  0  0  0  0  0  0
   -1.2107    1.0699    1.7142 O   0  0  0  0  0  0  0  0  0  0  0  0
   -1.8971   -1.5851    1.4060 O   0  0  0  0  0  0  0  0  0  0  0  0
   -3.2011    0.3291    0.1908 O   0  0  0  0  0  0  0  0  0  0  0  0
    1.9407    1.3760   -0.0382 C   0  0  0  0  0  0  0  0  0  0  0  0
    1.8545    1.7175   -1.2476 O   0  0  0  0  0  0  0  0  0  0  0  0
    2.4341   -0.7443    1.7027 H   0  0  0  0  0  0  0  0  0  0  0  0
    1.2365   -0.9221   -1.4043 H   0  0  0  0  0  0  0  0  0  0  0  0
    0.5261   -1.7562    0.0088 H   0  0  0  0  0  0  0  0  0  0  0  0
   -0.6341    0.8060   -1.2939 H   0  0  0  0  0  0  0  0  0  0  0  0
   -1.2114   -0.8718   -1.5694 H   0  0  0  0  0  0  0  0  0  0  0  0
   -1.1394    1.9037    1.1842 H   0  0  0  0  0  0  0  0  0  0  0  0
   -2.2248   -2.2108    0.7115 H   0  0  0  0  0  0  0  0  0  0  0  0
    2.4492    2.0270    0.6607 H   0  0  0  0  0  0  0  0  0  0  0  0
  1  2  1  0
  2  3  1  0
  3  4  1  0
  4  5  1  0
  5  6  1  0
  5  7  1  0
  5  8  2  0
  2  9  1  0
  9 10  2  0
  1 11  1  0
  3 12  1  0
  3 13  1  0
  4 14  1  0
  4 15  1  0
  6 16  1  0
  7 17  1  0
  9 18  1  0
M  END
$$$$
