
     RDKit          3D

 43 45  0  0  0  0  0  0  0  0999 V2000
    8.3722   -1.1661    0.6298 C   0  0  0  0  0  0  0  0  0  0  0  0
    7.1823   -0.7901    1.3150 O   0  0  0  0  0  0  0  0  0  0  0  0
    6.0076   -0.3590    0.6816 C   0  0  0  0  0  0  0  0  0  0  0  0
    4.9028   -0.0179    1.4889 C   0  0  0  0  0  0  0  0  0  0  0  0
    3.7367    0.4101    0.8602 C   0  0  0  0  0  0  0  0  0  0  0  0
    3.6446    0.5037   -0.4952 C   0  0  0  0  0  0  0  0  0  0  0  0
    2.4229    0.9361   -0.8274 N   0  0  0  0  0  0  0  0  0  0  0  0
    1.8030    1.0929    0.3673 C   0  0  0  0  0  0  0  0  0  0  0  0
    2.5787    0.7787    1.4373 N   0  0  0  0  0  0  0  0  0  0  0  0
    0.1262    1.6492    0.5284 S   0  0  0  0  0  4  0  0  0  0  0  0
    0.0935    2.9378   -0.2827 O   0  0  0  0  0  0  0  0  0  0  0  0
   -0.8360    0.4632   -0.4456 C   0  0  0  0  0  0  0  0  0  0  0  0
   -2.3267    0.6723   -0.3082 C   0  0  0  0  0  0  0  0  0  0  0  0
   -2.7928    1.8862    0.0954 N   0  0  0  0  0  0  0  0  0  0  0  0
   -4.1151    2.1583    0.2209 C   0  0  0  0  0  0  0  0  0  0  0  0
   -5.0669    1.1771   -0.0711 C   0  0  0  0  0  0  0  0  0  0  0  0
   -6.5302    1.4660    0.1129 C   0  0  0  0  0  0  0  0  0  0  0  0
   -4.6295   -0.0927   -0.4833 C   0  0  0  0  0  0  0  0  0  0  0  0
   -5.5726   -1.0936   -0.7353 O   0  0  0  0  0  0  0  0  0  0  0  0
   -5.8796   -2.0844    0.2374 C   0  0  0  0  0  0  0  0  0  0  0  0
   -3.2503   -0.3446   -0.6531 C   0  0  0  0  0  0  0  0  0  0  0  0
   -2.7785   -1.6866   -1.1594 C   0  0  0  0  0  0  0  0  0  0  0  0
    4.7050    0.1790   -1.3349 C   0  0  0  0  0  0  0  0  0  0  0  0
    5.9012   -0.2577   -0.7357 C   0  0  0  0  0  0  0  0  0  0  0  0
    8.7606   -0.3088    0.0404 H   0  0  0  0  0  0  0  0  0  0  0  0
    8.1713   -2.0301   -0.0384 H   0  0  0  0  0  0  0  0  0  0  0  0
    9.1402   -1.4630    1.3731 H   0  0  0  0  0  0  0  0  0  0  0  0
    4.9579   -0.0865    2.5679 H   0  0  0  0  0  0  0  0  0  0  0  0
    2.0378    1.1108   -1.7822 H   0  0  0  0  0  0  0  0  0  0  0  0
   -0.5514    0.5537   -1.5150 H   0  0  0  0  0  0  0  0  0  0  0  0
   -0.5621   -0.5517   -0.0885 H   0  0  0  0  0  0  0  0  0  0  0  0
   -4.4213    3.1412    0.5550 H   0  0  0  0  0  0  0  0  0  0  0  0
   -6.7211    2.5588    0.1702 H   0  0  0  0  0  0  0  0  0  0  0  0
   -6.8862    0.9918    1.0512 H   0  0  0  0  0  0  0  0  0  0  0  0
   -7.1120    1.0633   -0.7430 H   0  0  0  0  0  0  0  0  0  0  0  0
   -6.6448   -2.7740   -0.1738 H   0  0  0  0  0  0  0  0  0  0  0  0
   -6.2827   -1.6037    1.1536 H   0  0  0  0  0  0  0  0  0  0  0  0
   -4.9708   -2.6672    0.4954 H   0  0  0  0  0  0  0  0  0  0  0  0
   -1.9481   -1.5609   -1.8851 H   0  0  0  0  0  0  0  0  0  0  0  0
   -3.5840   -2.2327   -1.6926 H   0  0  0  0  0  0  0  0  0  0  0  0
   -2.4303   -2.3044   -0.3055 H   0  0  0  0  0  0  0  0  0  0  0  0
    4.6141    0.2591   -2.4105 H   0  0  0  0  0  0  0  0  0  0  0  0
    6.7344   -0.5137   -1.3756 H   0  0  0  0  0  0  0  0  0  0  0  0
  1  2  1  0
  2  3  1  0
  3  4  2  0
  4  5  1  0
  5  6  2  0
  6  7  1  0
  7  8  1  0
  8  9  2  0
  8 10  1  0
 10 11  2  0
 10 12  1  6
 12 13  1  0
 13 14  2  0
 14 15  1  0
 15 16  2  0
 16 17  1  0
 16 18  1  0
 18 19  1  0
 19 20  1  0
 18 21  2  0
 21 22  1  0
  6 23  1  0
 23 24  2  0
 24  3  1  0
  9  5  1  0
 21 13  1  0
  1 25  1  0
  1 26  1  0
  1 27  1  0
  4 28  1  0
  7 29  1  0
 12 30  1  0
 12 31  1  0
 15 32  1  0
 17 33  1  0
 17 34  1  0
 17 35  1  0
 20 36  1  0
 20 37  1  0
 20 38  1  0
 22 39  1  0
 22 40  1  0
 22 41  1  0
 23 42  1  0
 24 43  1  0
M  END
$$$$
