
     RDKit          3D

 48 49  0  0  0  0  0  0  0  0999 V2000
   -6.6713    4.5938   -1.4139 F   0  0  0  0  0  0  0  0  0  0  0  0
   -5.3912    4.3796   -0.9370 C   0  0  0  0  0  0  0  0  0  0  0  0
   -5.2475    5.0226    0.2792 F   0  0  0  0  0  0  0  0  0  0  0  0
   -4.4794    4.8989   -1.8382 F   0  0  0  0  0  0  0  0  0  0  0  0
   -5.1539    2.8853   -0.7637 C   0  0  0  0  0  0  0  0  0  0  0  0
   -3.8344    2.6619   -0.2720 O   0  0  0  0  0  0  0  0  0  0  0  0
   -3.2917    1.3968   -0.0018 C   0  0  0  0  0  0  0  0  0  0  0  0
   -1.9807    1.3259    0.4763 C   0  0  0  0  0  0  0  0  0  0  0  0
   -1.3767    0.0880    0.7543 C   0  0  0  0  0  0  0  0  0  0  0  0
    0.0228    0.0651    1.2369 C   0  0  0  0  0  0  0  0  0  0  0  0
    0.4172    0.9653    2.0278 O   0  0  0  0  0  0  0  0  0  0  0  0
    0.9415   -0.9394    0.7775 N   0  0  0  0  0  0  0  0  0  0  0  0
    2.3047   -1.0656    1.2928 C   0  0  0  0  0  0  0  0  0  0  0  0
    3.3273   -0.5348    0.2714 C   0  0  0  0  0  0  0  0  0  0  0  0
    4.7555   -0.8624    0.7523 C   0  0  0  0  0  0  0  0  0  0  0  0
    5.7969   -0.3010   -0.2189 C   0  0  0  0  0  0  0  0  0  0  0  0
    5.5634    1.1927   -0.4513 C   0  0  0  0  0  0  0  0  0  0  0  0
    4.1197    1.4407   -0.8958 C   0  0  0  0  0  0  0  0  0  0  0  0
    3.1740    0.9232    0.1029 N   0  0  0  0  0  0  0  0  0  0  0  0
   -2.1143   -1.1036    0.5803 C   0  0  0  0  0  0  0  0  0  0  0  0
   -1.5206   -2.3290    0.9357 O   0  0  0  0  0  0  0  0  0  0  0  0
   -2.0429   -3.6321    0.6706 C   0  0  0  0  0  0  0  0  0  0  0  0
   -1.7658   -4.0524   -0.7725 C   0  0  0  0  0  0  0  0  0  0  0  0
   -2.4205   -3.2181   -1.6588 F   0  0  0  0  0  0  0  0  0  0  0  0
   -0.4063   -4.0003   -1.0217 F   0  0  0  0  0  0  0  0  0  0  0  0
   -2.2090   -5.3476   -0.9670 F   0  0  0  0  0  0  0  0  0  0  0  0
   -3.4348   -1.0263    0.0949 C   0  0  0  0  0  0  0  0  0  0  0  0
   -4.0154    0.2093   -0.1960 C   0  0  0  0  0  0  0  0  0  0  0  0
   -5.2789    2.3796   -1.7459 H   0  0  0  0  0  0  0  0  0  0  0  0
   -5.8966    2.4789   -0.0430 H   0  0  0  0  0  0  0  0  0  0  0  0
   -1.4237    2.2453    0.6137 H   0  0  0  0  0  0  0  0  0  0  0  0
    0.6755   -1.5356   -0.0383 H   0  0  0  0  0  0  0  0  0  0  0  0
    2.4153   -0.5297    2.2608 H   0  0  0  0  0  0  0  0  0  0  0  0
    2.5011   -2.1422    1.4882 H   0  0  0  0  0  0  0  0  0  0  0  0
    3.1496   -1.0511   -0.7011 H   0  0  0  0  0  0  0  0  0  0  0  0
    4.8881   -1.9640    0.8248 H   0  0  0  0  0  0  0  0  0  0  0  0
    4.9247   -0.4251    1.7616 H   0  0  0  0  0  0  0  0  0  0  0  0
    5.7342   -0.8439   -1.1878 H   0  0  0  0  0  0  0  0  0  0  0  0
    6.8153   -0.4567    0.1977 H   0  0  0  0  0  0  0  0  0  0  0  0
    6.2619    1.5599   -1.2337 H   0  0  0  0  0  0  0  0  0  0  0  0
    5.7650    1.7541    0.4875 H   0  0  0  0  0  0  0  0  0  0  0  0
    3.9382    0.9678   -1.8879 H   0  0  0  0  0  0  0  0  0  0  0  0
    3.9654    2.5356   -1.0091 H   0  0  0  0  0  0  0  0  0  0  0  0
    2.2149    1.1154   -0.2693 H   0  0  0  0  0  0  0  0  0  0  0  0
   -3.1245   -3.6928    0.9105 H   0  0  0  0  0  0  0  0  0  0  0  0
   -1.5263   -4.3492    1.3431 H   0  0  0  0  0  0  0  0  0  0  0  0
   -4.0339   -1.9125   -0.0519 H   0  0  0  0  0  0  0  0  0  0  0  0
   -5.0320    0.2296   -0.5643 H   0  0  0  0  0  0  0  0  0  0  0  0
  1  2  1  0
  2  3  1  0
  2  4  1  0
  2  5  1  0
  5  6  1  0
  6  7  1  0
  7  8  2  0
  8  9  1  0
  9 10  1  0
 10 11  2  0
 10 12  1  0
 12 13  1  0
 13 14  1  0
 14 15  1  0
 15 16  1  0
 16 17  1  0
 17 18  1  0
 18 19  1  0
  9 20  2  0
 20 21  1  0
 21 22  1  0
 22 23  1  0
 23 24  1  0
 23 25  1  0
 23 26  1  0
 20 27  1  0
 27 28  2  0
 28  7  1  0
 19 14  1  0
  5 29  1  0
  5 30  1  0
  8 31  1  0
 12 32  1  0
 13 33  1  0
 13 34  1  0
 14 35  1  0
 15 36  1  0
 15 37  1  0
 16 38  1  0
 16 39  1  0
 17 40  1  0
 17 41  1  0
 18 42  1  0
 18 43  1  0
 19 44  1  0
 22 45  1  0
 22 46  1  0
 27 47  1  0
 28 48  1  0
M  END
$$$$
