
     RDKit          3D

 36 38  0  0  0  0  0  0  0  0999 V2000
    5.0610    0.2720   -1.2589 C   0  0  0  0  0  0  0  0  0  0  0  0
    4.2383    0.8272   -0.0902 C   0  0  0  0  0  0  0  0  0  0  0  0
    5.0141    0.7251    1.2285 C   0  0  0  0  0  0  0  0  0  0  0  0
    2.8930    0.1318    0.0111 C   0  0  0  0  0  0  0  0  0  0  0  0
    1.7065    0.8710   -0.1460 C   0  0  0  0  0  0  0  0  0  0  0  0
    0.4521    0.2397   -0.0546 C   0  0  0  0  0  0  0  0  0  0  0  0
    0.3899   -1.1493    0.1973 C   0  0  0  0  0  0  0  0  0  0  0  0
   -0.7837   -1.7668    0.2881 O   0  0  0  0  0  0  0  0  0  0  0  0
   -1.9419   -1.1312    0.1500 C   0  0  0  0  0  0  0  0  0  0  0  0
   -3.1028   -1.8246    0.2622 N   0  0  0  0  0  0  0  0  0  0  0  0
   -4.3238   -1.2388    0.1291 C   0  0  0  0  0  0  0  0  0  0  0  0
   -5.4881   -2.0434    0.3449 N   0  0  0  0  0  0  0  0  0  0  0  0
   -4.4078    0.1463   -0.1595 C   0  0  0  0  0  0  0  0  0  0  0  0
   -3.2162    0.8843   -0.2531 C   0  0  0  0  0  0  0  0  0  0  0  0
   -1.9725    0.2529   -0.1034 C   0  0  0  0  0  0  0  0  0  0  0  0
   -0.7542    0.9469   -0.2069 C   0  0  0  0  0  0  0  0  0  0  0  0
   -0.7437    2.1891   -0.4341 O   0  0  0  0  0  0  0  0  0  0  0  0
   -5.6906    0.8428   -0.4081 C   0  0  0  0  0  0  0  0  0  0  0  0
   -5.8167    2.1945   -0.0987 O   0  0  0  0  0  0  0  0  0  0  0  0
   -6.6576    0.2405   -0.9468 O   0  0  0  0  0  0  0  0  0  0  0  0
    1.5682   -1.8831    0.3532 C   0  0  0  0  0  0  0  0  0  0  0  0
    2.8097   -1.2508    0.2614 C   0  0  0  0  0  0  0  0  0  0  0  0
    4.4821    0.3529   -2.2039 H   0  0  0  0  0  0  0  0  0  0  0  0
    5.9983    0.8568   -1.3754 H   0  0  0  0  0  0  0  0  0  0  0  0
    5.3286   -0.7928   -1.0913 H   0  0  0  0  0  0  0  0  0  0  0  0
    4.0818    1.9108   -0.2905 H   0  0  0  0  0  0  0  0  0  0  0  0
    5.2806   -0.3286    1.4569 H   0  0  0  0  0  0  0  0  0  0  0  0
    4.4017    1.1300    2.0624 H   0  0  0  0  0  0  0  0  0  0  0  0
    5.9504    1.3197    1.1654 H   0  0  0  0  0  0  0  0  0  0  0  0
    1.7634    1.9357   -0.3390 H   0  0  0  0  0  0  0  0  0  0  0  0
   -6.4226   -1.6295    0.5499 H   0  0  0  0  0  0  0  0  0  0  0  0
   -5.3874   -3.0773    0.4515 H   0  0  0  0  0  0  0  0  0  0  0  0
   -3.2590    1.9450   -0.4718 H   0  0  0  0  0  0  0  0  0  0  0  0
   -6.6803    2.6917   -0.2810 H   0  0  0  0  0  0  0  0  0  0  0  0
    1.5224   -2.9476    0.5464 H   0  0  0  0  0  0  0  0  0  0  0  0
    3.7067   -1.8432    0.3863 H   0  0  0  0  0  0  0  0  0  0  0  0
  1  2  1  0
  2  3  1  0
  2  4  1  0
  4  5  2  0
  5  6  1  0
  6  7  2  0
  7  8  1  0
  8  9  1  0
  9 10  2  0
 10 11  1  0
 11 12  1  0
 11 13  2  0
 13 14  1  0
 14 15  2  0
 15 16  1  0
 16 17  2  0
 13 18  1  0
 18 19  1  0
 18 20  2  0
  7 21  1  0
 21 22  2  0
 22  4  1  0
 16  6  1  0
 15  9  1  0
  1 23  1  0
  1 24  1  0
  1 25  1  0
  2 26  1  0
  3 27  1  0
  3 28  1  0
  3 29  1  0
  5 30  1  0
 12 31  1  0
 12 32  1  0
 14 33  1  0
 19 34  1  0
 21 35  1  0
 22 36  1  0
M  END
$$$$
