
     RDKit          3D

 87 90  0  0  0  0  0  0  0  0999 V2000
   -6.2101    2.7761   -0.2400 C   0  0  0  0  0  0  0  0  0  0  0  0
   -6.6678    2.1225    1.0637 C   0  0  0  0  0  0  0  0  0  0  0  0
   -7.5754    0.9043    0.8312 C   0  0  0  0  0  0  0  0  0  0  0  0
   -6.8054   -0.3029    0.2787 C   0  0  0  0  0  0  0  0  0  0  0  0
   -7.7097   -1.5371    0.1701 C   0  0  0  0  0  0  0  0  0  0  0  0
   -6.9661   -2.7188   -0.4584 C   0  0  0  0  0  0  0  0  0  0  0  0
   -5.8569   -3.1104    0.3489 O   0  0  0  0  0  0  0  0  0  0  0  0
   -5.9685   -3.9286    1.4785 C   0  0  0  0  0  0  0  0  0  0  0  0
   -7.0811   -4.4327    1.7880 O   0  0  0  0  0  0  0  0  0  0  0  0
   -4.8150   -4.2662    2.2623 N   0  0  0  0  0  0  0  0  0  0  0  0
   -3.6885   -3.6151    2.3479 C   0  0  0  0  0  0  0  0  0  0  0  0
   -2.6617   -4.1282    3.1970 N   0  0  0  0  0  0  0  0  0  0  0  0
   -3.4746   -2.3056    1.7020 C   0  0  0  0  0  0  0  0  0  0  0  0
   -3.1381   -2.2229    0.3444 C   0  0  0  0  0  0  0  0  0  0  0  0
   -2.9347   -0.9766   -0.2557 C   0  0  0  0  0  0  0  0  0  0  0  0
   -3.0308    0.2058    0.5055 C   0  0  0  0  0  0  0  0  0  0  0  0
   -2.8371    1.5081   -0.0803 N   0  0  0  0  0  0  0  0  0  0  0  0
   -2.5533    1.7383   -1.4966 C   0  0  0  0  0  0  0  0  0  0  0  0
   -1.1595    1.2914   -1.8389 C   0  0  0  0  0  0  0  0  0  0  0  0
   -0.1343    1.3481   -0.9474 N   0  0  0  0  0  0  0  0  0  0  0  0
    0.9045    0.8574   -1.6466 C   0  0  0  0  0  0  0  0  0  0  0  0
    0.5187    0.5274   -2.9117 C   0  0  0  0  0  0  0  0  0  0  0  0
    1.4064   -0.0390   -3.8268 C   0  0  0  0  0  0  0  0  0  0  0  0
    2.7323   -0.2513   -3.4074 C   0  0  0  0  0  0  0  0  0  0  0  0
    3.1469    0.1017   -2.0945 C   0  0  0  0  0  0  0  0  0  0  0  0
    2.2065    0.6609   -1.1967 C   0  0  0  0  0  0  0  0  0  0  0  0
    4.5442   -0.1365   -1.6628 C   0  0  0  0  0  0  0  0  0  0  0  0
    5.2982   -0.8735   -2.3552 O   0  0  0  0  0  0  0  0  0  0  0  0
    5.0568    0.4700   -0.4643 N   0  0  0  0  0  0  0  0  0  0  0  0
    5.2702    1.9273   -0.4596 C   0  0  0  0  0  0  0  0  0  0  0  0
    6.6197    2.2924   -1.0908 C   0  0  0  0  0  0  0  0  0  0  0  0
    7.7646    1.7253   -0.3096 C   0  0  0  0  0  0  0  0  0  0  0  0
    8.5138    0.8586   -0.8373 O   0  0  0  0  0  0  0  0  0  0  0  0
    7.9651    2.1355    1.0133 O   0  0  0  0  0  0  0  0  0  0  0  0
    8.9769    1.5918    1.8581 C   0  0  0  0  0  0  0  0  0  0  0  0
   10.3426    2.1676    1.5030 C   0  0  0  0  0  0  0  0  0  0  0  0
    5.6080   -0.3683    0.5738 C   0  0  0  0  0  0  0  0  0  0  0  0
    6.2234   -1.5398    0.2440 N   0  0  0  0  0  0  0  0  0  0  0  0
    6.7761   -2.3568    1.1795 C   0  0  0  0  0  0  0  0  0  0  0  0
    6.7222   -2.0092    2.5296 C   0  0  0  0  0  0  0  0  0  0  0  0
    6.0856   -0.8259    2.9030 C   0  0  0  0  0  0  0  0  0  0  0  0
    5.5195   -0.0017    1.9286 C   0  0  0  0  0  0  0  0  0  0  0  0
   -0.7848    0.8204   -3.0593 N   0  0  0  0  0  0  0  0  0  0  0  0
   -1.6340    0.5739   -4.2241 C   0  0  0  0  0  0  0  0  0  0  0  0
   -3.3243    0.1093    1.8747 C   0  0  0  0  0  0  0  0  0  0  0  0
   -3.5457   -1.1359    2.4685 C   0  0  0  0  0  0  0  0  0  0  0  0
   -5.6268    3.6919   -0.0082 H   0  0  0  0  0  0  0  0  0  0  0  0
   -7.0868    3.0617   -0.8590 H   0  0  0  0  0  0  0  0  0  0  0  0
   -5.5587    2.0907   -0.8189 H   0  0  0  0  0  0  0  0  0  0  0  0
   -5.7808    1.8305    1.6657 H   0  0  0  0  0  0  0  0  0  0  0  0
   -7.2356    2.8773    1.6496 H   0  0  0  0  0  0  0  0  0  0  0  0
   -8.0299    0.6232    1.8065 H   0  0  0  0  0  0  0  0  0  0  0  0
   -8.4021    1.1767    0.1390 H   0  0  0  0  0  0  0  0  0  0  0  0
   -5.9585   -0.5350    0.9565 H   0  0  0  0  0  0  0  0  0  0  0  0
   -6.4003   -0.0611   -0.7270 H   0  0  0  0  0  0  0  0  0  0  0  0
   -8.0776   -1.8255    1.1787 H   0  0  0  0  0  0  0  0  0  0  0  0
   -8.5901   -1.2959   -0.4646 H   0  0  0  0  0  0  0  0  0  0  0  0
   -6.5890   -2.4240   -1.4609 H   0  0  0  0  0  0  0  0  0  0  0  0
   -7.6608   -3.5746   -0.6036 H   0  0  0  0  0  0  0  0  0  0  0  0
   -2.7950   -5.0310    3.7049 H   0  0  0  0  0  0  0  0  0  0  0  0
   -1.7622   -3.6112    3.3162 H   0  0  0  0  0  0  0  0  0  0  0  0
   -3.0529   -3.1226   -0.2527 H   0  0  0  0  0  0  0  0  0  0  0  0
   -2.7028   -0.9481   -1.3108 H   0  0  0  0  0  0  0  0  0  0  0  0
   -2.9356    2.3510    0.5305 H   0  0  0  0  0  0  0  0  0  0  0  0
   -2.6348    2.8237   -1.7174 H   0  0  0  0  0  0  0  0  0  0  0  0
   -3.3106    1.2104   -2.1131 H   0  0  0  0  0  0  0  0  0  0  0  0
    1.0969   -0.3136   -4.8259 H   0  0  0  0  0  0  0  0  0  0  0  0
    3.4344   -0.6866   -4.1072 H   0  0  0  0  0  0  0  0  0  0  0  0
    2.4729    0.9204   -0.1798 H   0  0  0  0  0  0  0  0  0  0  0  0
    4.4663    2.4290   -1.0406 H   0  0  0  0  0  0  0  0  0  0  0  0
    5.2118    2.3428    0.5664 H   0  0  0  0  0  0  0  0  0  0  0  0
    6.6516    1.9252   -2.1399 H   0  0  0  0  0  0  0  0  0  0  0  0
    6.7213    3.3982   -1.1153 H   0  0  0  0  0  0  0  0  0  0  0  0
    8.9913    0.4826    1.7799 H   0  0  0  0  0  0  0  0  0  0  0  0
    8.7393    1.8583    2.9094 H   0  0  0  0  0  0  0  0  0  0  0  0
   10.6292    1.8782    0.4706 H   0  0  0  0  0  0  0  0  0  0  0  0
   11.1066    1.7767    2.2074 H   0  0  0  0  0  0  0  0  0  0  0  0
   10.3173    3.2753    1.5774 H   0  0  0  0  0  0  0  0  0  0  0  0
    7.2591   -3.2752    0.8740 H   0  0  0  0  0  0  0  0  0  0  0  0
    7.1622   -2.6543    3.2789 H   0  0  0  0  0  0  0  0  0  0  0  0
    6.0252   -0.5501    3.9479 H   0  0  0  0  0  0  0  0  0  0  0  0
    5.0038    0.8964    2.2375 H   0  0  0  0  0  0  0  0  0  0  0  0
   -2.4011    1.3709   -4.3155 H   0  0  0  0  0  0  0  0  0  0  0  0
   -2.1347   -0.4109   -4.1172 H   0  0  0  0  0  0  0  0  0  0  0  0
   -1.0332    0.5822   -5.1565 H   0  0  0  0  0  0  0  0  0  0  0  0
   -3.3936    1.0030    2.4819 H   0  0  0  0  0  0  0  0  0  0  0  0
   -3.7806   -1.1875    3.5246 H   0  0  0  0  0  0  0  0  0  0  0  0
  1  2  1  0
  2  3  1  0
  3  4  1  0
  4  5  1  0
  5  6  1  0
  6  7  1  0
  7  8  1  0
  8  9  2  0
  8 10  1  0
 10 11  2  0
 11 12  1  0
 11 13  1  0
 13 14  2  0
 14 15  1  0
 15 16  2  0
 16 17  1  0
 17 18  1  0
 18 19  1  0
 19 20  2  0
 20 21  1  0
 21 22  2  0
 22 23  1  0
 23 24  2  0
 24 25  1  0
 25 26  2  0
 25 27  1  0
 27 28  2  0
 27 29  1  0
 29 30  1  0
 30 31  1  0
 31 32  1  0
 32 33  2  0
 32 34  1  0
 34 35  1  0
 35 36  1  0
 29 37  1  0
 37 38  2  0
 38 39  1  0
 39 40  2  0
 40 41  1  0
 41 42  2  0
 22 43  1  0
 43 44  1  0
 16 45  1  0
 45 46  2  0
 46 13  1  0
 43 19  1  0
 26 21  1  0
 42 37  1  0
  1 47  1  0
  1 48  1  0
  1 49  1  0
  2 50  1  0
  2 51  1  0
  3 52  1  0
  3 53  1  0
  4 54  1  0
  4 55  1  0
  5 56  1  0
  5 57  1  0
  6 58  1  0
  6 59  1  0
 12 60  1  0
 12 61  1  0
 14 62  1  0
 15 63  1  0
 17 64  1  0
 18 65  1  0
 18 66  1  0
 23 67  1  0
 24 68  1  0
 26 69  1  0
 30 70  1  0
 30 71  1  0
 31 72  1  0
 31 73  1  0
 35 74  1  0
 35 75  1  0
 36 76  1  0
 36 77  1  0
 36 78  1  0
 39 79  1  0
 40 80  1  0
 41 81  1  0
 42 82  1  0
 44 83  1  0
 44 84  1  0
 44 85  1  0
 45 86  1  0
 46 87  1  0
M  END
$$$$
