
     RDKit          3D

 57 59  0  0  0  0  0  0  0  0999 V2000
   -7.4663    1.3093   -0.2884 C   0  0  0  0  0  0  0  0  0  0  0  0
   -6.7072    0.8679    0.9695 C   0  0  0  0  0  0  0  0  0  0  0  0
   -5.4128    0.0378    0.6917 C   0  0  0  0  0  0  0  0  0  0  0  0
   -4.3961    0.8448   -0.1870 C   0  0  0  0  0  0  0  0  0  0  0  0
   -4.0265    2.2382    0.3381 C   0  0  0  0  0  0  0  0  0  0  0  0
   -4.7846   -0.3462    2.0684 C   0  0  0  0  0  0  0  0  0  0  0  0
   -3.5443   -1.1965    1.9600 C   0  0  0  0  0  0  0  0  0  0  0  0
   -3.6623   -2.4309    1.7311 O   0  0  0  0  0  0  0  0  0  0  0  0
   -2.2432   -0.5959    2.0670 N   0  0  0  0  0  0  0  0  0  0  0  0
   -1.0121   -1.3376    2.0543 C   0  0  0  0  0  0  0  0  0  0  0  0
    0.1130   -0.7896    1.4187 C   0  0  0  0  0  0  0  0  0  0  0  0
    1.3420   -1.4803    1.4065 C   0  0  0  0  0  0  0  0  0  0  0  0
    2.5485   -0.9501    0.7248 C   0  0  0  0  0  0  0  0  0  0  0  0
    2.7398    0.3480    0.4531 C   0  0  0  0  0  0  0  0  0  0  0  0
    3.9575    0.8316   -0.2152 C   0  0  0  0  0  0  0  0  0  0  0  0
    4.9679    0.0368   -0.6335 N   0  0  0  0  0  0  0  0  0  0  0  0
    5.9692    0.7468   -1.2211 C   0  0  0  0  0  0  0  0  0  0  0  0
    5.7556    2.1265   -1.2735 C   0  0  0  0  0  0  0  0  0  0  0  0
    4.2678    2.4461   -0.5599 S   0  0  0  0  0  0  0  0  0  0  0  0
    7.1973    0.0548   -1.7609 C   0  0  0  0  0  0  0  0  0  0  0  0
    8.5176    0.6553   -1.2807 C   0  0  0  0  0  0  0  0  0  0  0  0
    8.8628    1.0350   -2.7154 C   0  0  0  0  0  0  0  0  0  0  0  0
    7.5493    0.4327   -3.1988 C   0  0  0  0  0  0  0  0  0  0  0  0
    1.4214   -2.7343    2.0328 C   0  0  0  0  0  0  0  0  0  0  0  0
    0.3115   -3.2721    2.6874 C   0  0  0  0  0  0  0  0  0  0  0  0
   -0.8976   -2.5753    2.7085 C   0  0  0  0  0  0  0  0  0  0  0  0
   -5.8002   -1.2490   -0.0285 C   0  0  0  0  0  0  0  0  0  0  0  0
   -5.1123   -1.6655   -1.1667 O   0  0  0  0  0  0  0  0  0  0  0  0
   -6.7267   -1.9740    0.4275 O   0  0  0  0  0  0  0  0  0  0  0  0
   -7.7256    0.4372   -0.9237 H   0  0  0  0  0  0  0  0  0  0  0  0
   -6.8711    2.0331   -0.8811 H   0  0  0  0  0  0  0  0  0  0  0  0
   -8.4101    1.8114    0.0117 H   0  0  0  0  0  0  0  0  0  0  0  0
   -6.4655    1.7697    1.5717 H   0  0  0  0  0  0  0  0  0  0  0  0
   -7.4070    0.2680    1.5927 H   0  0  0  0  0  0  0  0  0  0  0  0
   -3.4568    0.2631   -0.3062 H   0  0  0  0  0  0  0  0  0  0  0  0
   -4.8036    0.9704   -1.2136 H   0  0  0  0  0  0  0  0  0  0  0  0
   -3.2261    2.6663   -0.3015 H   0  0  0  0  0  0  0  0  0  0  0  0
   -3.6463    2.1992    1.3769 H   0  0  0  0  0  0  0  0  0  0  0  0
   -4.8954    2.9255    0.2909 H   0  0  0  0  0  0  0  0  0  0  0  0
   -4.5535    0.5639    2.6604 H   0  0  0  0  0  0  0  0  0  0  0  0
   -5.5301   -0.9098    2.6723 H   0  0  0  0  0  0  0  0  0  0  0  0
   -2.1810    0.4463    2.0471 H   0  0  0  0  0  0  0  0  0  0  0  0
    0.0045    0.1576    0.9083 H   0  0  0  0  0  0  0  0  0  0  0  0
    3.3308   -1.6579    0.4750 H   0  0  0  0  0  0  0  0  0  0  0  0
    2.0083    1.0886    0.7443 H   0  0  0  0  0  0  0  0  0  0  0  0
    6.4251    2.8633   -1.6971 H   0  0  0  0  0  0  0  0  0  0  0  0
    7.1642   -1.0484   -1.6161 H   0  0  0  0  0  0  0  0  0  0  0  0
    8.4098    1.5434   -0.6197 H   0  0  0  0  0  0  0  0  0  0  0  0
    9.2073   -0.1158   -0.8729 H   0  0  0  0  0  0  0  0  0  0  0  0
    8.9065    2.1360   -2.8653 H   0  0  0  0  0  0  0  0  0  0  0  0
    9.7515    0.4888   -3.1007 H   0  0  0  0  0  0  0  0  0  0  0  0
    6.8765    1.1909   -3.6568 H   0  0  0  0  0  0  0  0  0  0  0  0
    7.7083   -0.4603   -3.8420 H   0  0  0  0  0  0  0  0  0  0  0  0
    2.3504   -3.2918    2.0301 H   0  0  0  0  0  0  0  0  0  0  0  0
    0.3913   -4.2290    3.1870 H   0  0  0  0  0  0  0  0  0  0  0  0
   -1.7336   -2.9951    3.2518 H   0  0  0  0  0  0  0  0  0  0  0  0
   -5.3577   -2.5289   -1.6361 H   0  0  0  0  0  0  0  0  0  0  0  0
  1  2  1  0
  2  3  1  0
  3  4  1  0
  4  5  1  0
  3  6  1  0
  6  7  1  0
  7  8  2  0
  7  9  1  0
  9 10  1  0
 10 11  2  0
 11 12  1  0
 12 13  1  0
 13 14  2  0
 14 15  1  0
 15 16  2  0
 16 17  1  0
 17 18  2  0
 18 19  1  0
 17 20  1  0
 20 21  1  0
 21 22  1  0
 22 23  1  0
 12 24  2  0
 24 25  1  0
 25 26  2  0
  3 27  1  0
 27 28  1  0
 27 29  2  0
 26 10  1  0
 19 15  1  0
 23 20  1  0
  1 30  1  0
  1 31  1  0
  1 32  1  0
  2 33  1  0
  2 34  1  0
  4 35  1  0
  4 36  1  0
  5 37  1  0
  5 38  1  0
  5 39  1  0
  6 40  1  0
  6 41  1  0
  9 42  1  0
 11 43  1  0
 13 44  1  0
 14 45  1  0
 18 46  1  0
 20 47  1  0
 21 48  1  0
 21 49  1  0
 22 50  1  0
 22 51  1  0
 23 52  1  0
 23 53  1  0
 24 54  1  0
 25 55  1  0
 26 56  1  0
 28 57  1  0
M  END
$$$$
