
     RDKit          3D

 36 38  0  0  0  0  0  0  0  0999 V2000
   -1.7798   -3.1901   -0.7698 C   0  0  0  0  0  0  0  0  0  0  0  0
   -2.3217   -1.8019   -0.6407 C   0  0  0  0  0  0  0  0  0  0  0  0
   -1.5638   -0.6297   -0.6228 C   0  0  0  0  0  0  0  0  0  0  0  0
   -0.0674   -0.5079   -0.6538 C   0  0  0  0  0  0  0  0  0  0  0  0
    0.4963   -0.4573    0.7678 C   0  0  0  0  0  0  0  0  0  0  0  0
    1.9526   -0.3385    0.7351 N   0  0  0  0  0  0  0  0  0  0  0  0
    2.6140    0.8910    0.3952 C   0  0  0  0  0  0  0  0  0  0  0  0
    1.9347    1.9363    0.2048 O   0  0  0  0  0  0  0  0  0  0  0  0
    4.0817    0.9620    0.2709 C   0  0  0  0  0  0  0  0  0  0  0  0
    4.9856   -0.0953    0.3440 C   0  0  0  0  0  0  0  0  0  0  0  0
    6.3178    0.3017    0.1730 C   0  0  0  0  0  0  0  0  0  0  0  0
    6.4734    1.6649   -0.0376 C   0  0  0  0  0  0  0  0  0  0  0  0
    4.9511    2.3756   -0.0122 S   0  0  0  0  0  0  0  0  0  0  0  0
   -2.4791    0.3940   -0.4687 C   0  0  0  0  0  0  0  0  0  0  0  0
   -2.3047    1.7736   -0.3527 C   0  0  0  0  0  0  0  0  0  0  0  0
   -3.4538    2.5695   -0.1948 C   0  0  0  0  0  0  0  0  0  0  0  0
   -4.7351    1.9765   -0.1529 C   0  0  0  0  0  0  0  0  0  0  0  0
   -4.8793    0.5816   -0.2663 C   0  0  0  0  0  0  0  0  0  0  0  0
   -3.7237   -0.1826   -0.4234 C   0  0  0  0  0  0  0  0  0  0  0  0
   -3.6415   -1.5203   -0.5302 N   0  0  0  0  0  0  0  0  0  0  0  0
   -2.5948   -3.9357   -0.6584 H   0  0  0  0  0  0  0  0  0  0  0  0
   -1.3115   -3.3151   -1.7681 H   0  0  0  0  0  0  0  0  0  0  0  0
   -1.0198   -3.3715    0.0185 H   0  0  0  0  0  0  0  0  0  0  0  0
    0.3699   -1.3731   -1.1966 H   0  0  0  0  0  0  0  0  0  0  0  0
    0.2120    0.4120   -1.2095 H   0  0  0  0  0  0  0  0  0  0  0  0
    0.2197   -1.3925    1.3026 H   0  0  0  0  0  0  0  0  0  0  0  0
    0.0619    0.3980    1.3305 H   0  0  0  0  0  0  0  0  0  0  0  0
    2.5127   -1.1655    1.0371 H   0  0  0  0  0  0  0  0  0  0  0  0
    4.7075   -1.1271    0.5052 H   0  0  0  0  0  0  0  0  0  0  0  0
    7.1489   -0.3904    0.1985 H   0  0  0  0  0  0  0  0  0  0  0  0
    7.4128    2.1775   -0.1940 H   0  0  0  0  0  0  0  0  0  0  0  0
   -1.3200    2.2218   -0.3810 H   0  0  0  0  0  0  0  0  0  0  0  0
   -3.3550    3.6433   -0.1030 H   0  0  0  0  0  0  0  0  0  0  0  0
   -5.6118    2.5988   -0.0295 H   0  0  0  0  0  0  0  0  0  0  0  0
   -5.8565    0.1179   -0.2291 H   0  0  0  0  0  0  0  0  0  0  0  0
   -4.4333   -2.2016   -0.5167 H   0  0  0  0  0  0  0  0  0  0  0  0
  1  2  1  0
  2  3  2  0
  3  4  1  0
  4  5  1  0
  5  6  1  0
  6  7  1  0
  7  8  2  0
  7  9  1  0
  9 10  2  0
 10 11  1  0
 11 12  2  0
 12 13  1  0
  3 14  1  0
 14 15  2  0
 15 16  1  0
 16 17  2  0
 17 18  1  0
 18 19  2  0
 19 20  1  0
 20  2  1  0
 13  9  1  0
 19 14  1  0
  1 21  1  0
  1 22  1  0
  1 23  1  0
  4 24  1  0
  4 25  1  0
  5 26  1  0
  5 27  1  0
  6 28  1  0
 10 29  1  0
 11 30  1  0
 12 31  1  0
 15 32  1  0
 16 33  1  0
 17 34  1  0
 18 35  1  0
 20 36  1  0
M  END
$$$$
