
     RDKit          3D

 66 72  0  0  0  0  0  0  0  0999 V2000
   -1.7827    1.1896    0.6415 C   0  0  2  0  0  0  0  0  0  0  0  0
   -2.0838    2.4524    0.0290 O   0  0  0  0  0  0  0  0  0  0  0  0
   -0.9231    3.0863   -0.3783 C   0  0  0  0  0  0  0  0  0  0  0  0
   -0.8145    4.2434   -1.1532 C   0  0  0  0  0  0  0  0  0  0  0  0
   -1.9250    5.0320   -1.4424 O   0  0  0  0  0  0  0  0  0  0  0  0
    0.4525    4.5746   -1.6724 C   0  0  0  0  0  0  0  0  0  0  0  0
    1.5475    3.7016   -1.4858 C   0  0  0  0  0  0  0  0  0  0  0  0
    1.3954    2.5365   -0.7087 C   0  0  0  0  0  0  0  0  0  0  0  0
    0.1764    2.3499   -0.0579 C   0  0  0  0  0  0  0  0  0  0  0  0
   -0.2174    1.1123    0.6515 C   0  0  1  0  0  0  0  0  0  0  0  0
    0.3520    1.1338    2.0976 C   0  0  0  0  0  0  0  0  0  0  0  0
    1.8836    0.9760    2.1359 C   0  0  0  0  0  0  0  0  0  0  0  0
    2.3274   -0.1342    1.2666 N   0  0  0  0  0  0  0  0  0  0  0  0
    3.7681   -0.4227    1.4232 C   0  0  0  0  0  0  0  0  0  0  0  0
    4.0933   -1.8333    0.9122 C   0  0  0  0  0  0  0  0  0  0  0  0
    5.5806   -2.1486    0.8531 C   0  0  0  0  0  0  0  0  0  0  0  0
    4.8033   -1.9165   -0.4318 C   0  0  0  0  0  0  0  0  0  0  0  0
    1.8784    0.0276   -0.1440 C   0  0  2  0  0  0  0  0  0  0  0  0
    2.3831    1.3820   -0.7948 C   0  0  0  0  0  0  0  0  0  0  0  0
    0.3211   -0.0950   -0.1723 C   0  0  2  0  0  0  0  0  0  0  0  0
   -0.2520   -0.0837   -1.6266 C   0  0  0  0  0  0  0  0  0  0  0  0
   -1.7959    0.0076   -1.6046 C   0  0  0  0  0  0  0  0  0  0  0  0
   -2.3601   -0.0463   -0.1352 C   0  0  2  0  0  0  0  0  0  0  0  0
   -3.7820   -0.0659   -0.0204 O   0  0  0  0  0  0  0  0  0  0  0  0
   -4.4714    0.6797   -1.0023 C   0  0  0  0  0  0  0  0  0  0  0  0
   -1.7816   -1.3257    0.6171 C   0  0  2  0  0  0  0  0  0  0  0  0
   -0.2230   -1.4088    0.4530 C   0  0  0  0  0  0  0  0  0  0  0  0
   -2.4837   -2.7300    0.4094 C   0  0  0  0  0  0  0  0  0  0  0  0
   -3.8803   -2.7877    1.0774 C   0  0  0  0  0  0  0  0  0  0  0  0
   -2.6411   -3.1113   -1.0704 C   0  0  0  0  0  0  0  0  0  0  0  0
   -1.6885   -3.7314    1.0052 O   0  0  0  0  0  0  0  0  0  0  0  0
   -2.1963    1.2044    1.6748 H   0  0  0  0  0  0  0  0  0  0  0  0
   -2.8448    4.7992   -1.0869 H   0  0  0  0  0  0  0  0  0  0  0  0
    0.5700    5.4579   -2.2870 H   0  0  0  0  0  0  0  0  0  0  0  0
    2.4805    3.8959   -1.9993 H   0  0  0  0  0  0  0  0  0  0  0  0
   -0.1045    0.3156    2.6942 H   0  0  0  0  0  0  0  0  0  0  0  0
    0.0750    2.0859    2.6023 H   0  0  0  0  0  0  0  0  0  0  0  0
    2.3771    1.9296    1.8492 H   0  0  0  0  0  0  0  0  0  0  0  0
    2.1699    0.7675    3.1901 H   0  0  0  0  0  0  0  0  0  0  0  0
    4.0334   -0.4178    2.5032 H   0  0  0  0  0  0  0  0  0  0  0  0
    4.3991    0.3532    0.9433 H   0  0  0  0  0  0  0  0  0  0  0  0
    3.4499   -2.6948    1.1922 H   0  0  0  0  0  0  0  0  0  0  0  0
    6.2709   -1.3179    1.1153 H   0  0  0  0  0  0  0  0  0  0  0  0
    5.8355   -3.2139    1.0357 H   0  0  0  0  0  0  0  0  0  0  0  0
    5.0235   -0.9479   -0.9297 H   0  0  0  0  0  0  0  0  0  0  0  0
    4.5866   -2.8427   -1.0045 H   0  0  0  0  0  0  0  0  0  0  0  0
    2.2773   -0.8125   -0.7523 H   0  0  0  0  0  0  0  0  0  0  0  0
    2.5720    1.1848   -1.8724 H   0  0  0  0  0  0  0  0  0  0  0  0
    3.3499    1.7169   -0.3747 H   0  0  0  0  0  0  0  0  0  0  0  0
    0.1500    0.7535   -2.2330 H   0  0  0  0  0  0  0  0  0  0  0  0
    0.0578   -1.0084   -2.1623 H   0  0  0  0  0  0  0  0  0  0  0  0
   -2.0806    0.9663   -2.0890 H   0  0  0  0  0  0  0  0  0  0  0  0
   -2.2226   -0.7807   -2.2485 H   0  0  0  0  0  0  0  0  0  0  0  0
   -4.0969    1.7182   -1.0927 H   0  0  0  0  0  0  0  0  0  0  0  0
   -5.5369    0.7464   -0.7021 H   0  0  0  0  0  0  0  0  0  0  0  0
   -4.4444    0.1595   -1.9830 H   0  0  0  0  0  0  0  0  0  0  0  0
   -1.9328   -1.1195    1.7019 H   0  0  0  0  0  0  0  0  0  0  0  0
    0.2425   -1.6139    1.4405 H   0  0  0  0  0  0  0  0  0  0  0  0
    0.0692   -2.2662   -0.1914 H   0  0  0  0  0  0  0  0  0  0  0  0
   -4.6492   -2.2362    0.5006 H   0  0  0  0  0  0  0  0  0  0  0  0
   -3.8457   -2.3823    2.1108 H   0  0  0  0  0  0  0  0  0  0  0  0
   -4.2232   -3.8431    1.1410 H   0  0  0  0  0  0  0  0  0  0  0  0
   -2.9581   -4.1733   -1.1552 H   0  0  0  0  0  0  0  0  0  0  0  0
   -3.4256   -2.4992   -1.5616 H   0  0  0  0  0  0  0  0  0  0  0  0
   -1.6801   -3.0058   -1.6147 H   0  0  0  0  0  0  0  0  0  0  0  0
   -1.6051   -3.5232    1.9734 H   0  0  0  0  0  0  0  0  0  0  0  0
  1  2  1  0
  2  3  1  0
  3  4  2  0
  4  5  1  0
  4  6  1  0
  6  7  2  0
  7  8  1  0
  8  9  2  0
  9 10  1  0
 10 11  1  1
 11 12  1  0
 12 13  1  0
 13 14  1  0
 14 15  1  0
 15 16  1  0
 16 17  1  0
 13 18  1  0
 18 19  1  0
 18 20  1  0
 20 21  1  6
 21 22  1  0
 22 23  1  0
 23 24  1  6
 24 25  1  0
 23 26  1  0
 26 27  1  0
 26 28  1  0
 28 29  1  0
 28 30  1  0
 28 31  1  0
 10  1  1  0
 20 10  1  0
 27 20  1  0
 23  1  1  0
  9  3  1  0
 17 15  1  0
 19  8  1  0
  1 32  1  1
  5 33  1  0
  6 34  1  0
  7 35  1  0
 11 36  1  0
 11 37  1  0
 12 38  1  0
 12 39  1  0
 14 40  1  0
 14 41  1  0
 15 42  1  0
 16 43  1  0
 16 44  1  0
 17 45  1  0
 17 46  1  0
 18 47  1  6
 19 48  1  0
 19 49  1  0
 21 50  1  0
 21 51  1  0
 22 52  1  0
 22 53  1  0
 25 54  1  0
 25 55  1  0
 25 56  1  0
 26 57  1  1
 27 58  1  0
 27 59  1  0
 29 60  1  0
 29 61  1  0
 29 62  1  0
 30 63  1  0
 30 64  1  0
 30 65  1  0
 31 66  1  0
M  END
$$$$
