
     RDKit          3D

 42 45  0  0  0  0  0  0  0  0999 V2000
   -3.7139    2.2862   -1.0055 C   0  0  0  0  0  0  0  0  0  0  0  0
   -3.9374    0.8967   -0.4735 C   0  0  0  0  0  0  0  0  0  0  0  0
   -5.0735    0.1746   -0.8703 C   0  0  0  0  0  0  0  0  0  0  0  0
   -5.2906   -1.1179   -0.3942 C   0  0  0  0  0  0  0  0  0  0  0  0
   -4.3892   -1.6979    0.4975 C   0  0  0  0  0  0  0  0  0  0  0  0
   -3.2601   -0.9870    0.9325 C   0  0  0  0  0  0  0  0  0  0  0  0
   -2.3229   -1.6352    1.9163 C   0  0  0  0  0  0  0  0  0  0  0  0
   -3.0160    0.3109    0.4228 C   0  0  0  0  0  0  0  0  0  0  0  0
   -1.8528    1.0481    0.8291 N   0  0  0  0  0  0  0  0  0  0  0  0
   -0.5283    0.6451    0.4497 C   0  0  0  0  0  0  0  0  0  0  0  0
   -0.3364   -0.3855   -0.4256 N   0  0  0  0  0  0  0  0  0  0  0  0
    0.9118   -0.7889   -0.8068 C   0  0  0  0  0  0  0  0  0  0  0  0
    2.0474   -0.1265   -0.3014 C   0  0  0  0  0  0  0  0  0  0  0  0
    1.8317    0.8979    0.5735 N   0  0  0  0  0  0  0  0  0  0  0  0
    2.6891    1.6728    1.2685 C   0  0  0  0  0  0  0  0  0  0  0  0
    2.0426    2.5548    2.0668 N   0  0  0  0  0  0  0  0  0  0  0  0
    0.7275    2.3129    1.8622 C   0  0  0  0  0  0  0  0  0  0  0  0
    0.6068    1.2888    0.9488 C   0  0  0  0  0  0  0  0  0  0  0  0
    3.4072   -0.5337   -0.7220 C   0  0  0  0  0  0  0  0  0  0  0  0
    3.7900   -1.8850   -0.6688 C   0  0  0  0  0  0  0  0  0  0  0  0
    5.0691   -2.2724   -1.0803 C   0  0  0  0  0  0  0  0  0  0  0  0
    5.9715   -1.3171   -1.5552 C   0  0  0  0  0  0  0  0  0  0  0  0
    5.5948    0.0268   -1.6234 C   0  0  0  0  0  0  0  0  0  0  0  0
    4.3168    0.4185   -1.2128 C   0  0  0  0  0  0  0  0  0  0  0  0
   -2.6901    2.3704   -1.4274 H   0  0  0  0  0  0  0  0  0  0  0  0
   -4.4374    2.5373   -1.8101 H   0  0  0  0  0  0  0  0  0  0  0  0
   -3.8325    3.0227   -0.1835 H   0  0  0  0  0  0  0  0  0  0  0  0
   -5.7906    0.6087   -1.5561 H   0  0  0  0  0  0  0  0  0  0  0  0
   -6.1644   -1.6709   -0.7141 H   0  0  0  0  0  0  0  0  0  0  0  0
   -4.5796   -2.7009    0.8596 H   0  0  0  0  0  0  0  0  0  0  0  0
   -1.8947   -0.8819    2.6104 H   0  0  0  0  0  0  0  0  0  0  0  0
   -1.5008   -2.1428    1.3707 H   0  0  0  0  0  0  0  0  0  0  0  0
   -2.8566   -2.3891    2.5335 H   0  0  0  0  0  0  0  0  0  0  0  0
   -1.9960    1.9760    1.2859 H   0  0  0  0  0  0  0  0  0  0  0  0
    1.0147   -1.6061   -1.5090 H   0  0  0  0  0  0  0  0  0  0  0  0
    3.7668    1.5933    1.2226 H   0  0  0  0  0  0  0  0  0  0  0  0
   -0.0727    2.8395    2.3641 H   0  0  0  0  0  0  0  0  0  0  0  0
    3.1030   -2.6364   -0.2989 H   0  0  0  0  0  0  0  0  0  0  0  0
    5.3606   -3.3136   -1.0309 H   0  0  0  0  0  0  0  0  0  0  0  0
    6.9608   -1.6186   -1.8742 H   0  0  0  0  0  0  0  0  0  0  0  0
    6.2914    0.7648   -1.9996 H   0  0  0  0  0  0  0  0  0  0  0  0
    4.0329    1.4606   -1.2913 H   0  0  0  0  0  0  0  0  0  0  0  0
  1  2  1  0
  2  3  2  0
  3  4  1  0
  4  5  2  0
  5  6  1  0
  6  7  1  0
  6  8  2  0
  8  9  1  0
  9 10  1  0
 10 11  2  0
 11 12  1  0
 12 13  2  0
 13 14  1  0
 14 15  1  0
 15 16  2  0
 16 17  1  0
 17 18  2  0
 13 19  1  0
 19 20  2  0
 20 21  1  0
 21 22  2  0
 22 23  1  0
 23 24  2  0
  8  2  1  0
 18 10  1  0
 24 19  1  0
 18 14  1  0
  1 25  1  0
  1 26  1  0
  1 27  1  0
  3 28  1  0
  4 29  1  0
  5 30  1  0
  7 31  1  0
  7 32  1  0
  7 33  1  0
  9 34  1  0
 12 35  1  0
 15 36  1  0
 17 37  1  0
 20 38  1  0
 21 39  1  0
 22 40  1  0
 23 41  1  0
 24 42  1  0
M  END
$$$$
