
     RDKit          3D

 43 44  0  0  0  0  0  0  0  0999 V2000
    0.8496   -2.5734   -1.0261 C   0  0  0  0  0  0  0  0  0  0  0  0
    0.1748   -1.2445   -0.7759 C   0  0  0  0  0  0  0  0  0  0  0  0
   -1.1309   -1.2469   -0.2727 C   0  0  0  0  0  0  0  0  0  0  0  0
   -1.8523   -0.0555   -0.0447 C   0  0  0  0  0  0  0  0  0  0  0  0
   -1.1990    1.1742   -0.3280 C   0  0  0  0  0  0  0  0  0  0  0  0
   -1.9131    2.3691   -0.1936 O   0  0  0  0  0  0  0  0  0  0  0  0
    0.1533    1.1984   -0.7577 C   0  0  0  0  0  0  0  0  0  0  0  0
    0.8627    2.5308   -0.8962 C   0  0  0  0  0  0  0  0  0  0  0  0
    0.8159   -0.0191   -1.0694 C   0  0  0  0  0  0  0  0  0  0  0  0
    2.2050   -0.0227   -1.6925 C   0  0  0  0  0  0  0  0  0  0  0  0
    3.2884   -0.1645   -0.6610 C   0  0  0  0  0  0  0  0  0  0  0  0
    4.4375   -0.6715   -0.9442 N   0  0  0  0  0  0  0  0  0  0  0  0
    5.2978   -0.6330    0.2322 C   0  0  0  0  0  0  0  0  0  0  0  0
    4.4534    0.0403    1.3247 C   0  0  0  0  0  0  0  0  0  0  0  0
    3.1897    0.3091    0.6698 N   0  0  0  0  0  0  0  0  0  0  0  0
   -3.3174   -0.0897    0.4817 C   0  0  0  0  0  0  0  0  0  0  0  0
   -4.2752    0.5113   -0.5728 C   0  0  0  0  0  0  0  0  0  0  0  0
   -3.8255   -1.5251    0.7808 C   0  0  0  0  0  0  0  0  0  0  0  0
   -3.4280    0.7017    1.8067 C   0  0  0  0  0  0  0  0  0  0  0  0
    0.3037   -3.4121   -0.5440 H   0  0  0  0  0  0  0  0  0  0  0  0
    1.8768   -2.5738   -0.6068 H   0  0  0  0  0  0  0  0  0  0  0  0
    0.8918   -2.7721   -2.1173 H   0  0  0  0  0  0  0  0  0  0  0  0
   -1.5766   -2.2097   -0.0805 H   0  0  0  0  0  0  0  0  0  0  0  0
   -1.5899    3.2673   -0.5273 H   0  0  0  0  0  0  0  0  0  0  0  0
    0.5655    3.2224   -0.0812 H   0  0  0  0  0  0  0  0  0  0  0  0
    0.6237    2.9838   -1.8809 H   0  0  0  0  0  0  0  0  0  0  0  0
    1.9612    2.4427   -0.7882 H   0  0  0  0  0  0  0  0  0  0  0  0
    2.2899   -0.8524   -2.4253 H   0  0  0  0  0  0  0  0  0  0  0  0
    2.3862    0.8873   -2.2994 H   0  0  0  0  0  0  0  0  0  0  0  0
    6.2108   -0.0396    0.0120 H   0  0  0  0  0  0  0  0  0  0  0  0
    5.5772   -1.6671    0.5274 H   0  0  0  0  0  0  0  0  0  0  0  0
    4.2963   -0.6415    2.1879 H   0  0  0  0  0  0  0  0  0  0  0  0
    4.9168    0.9927    1.6603 H   0  0  0  0  0  0  0  0  0  0  0  0
    2.3612    0.7630    1.1135 H   0  0  0  0  0  0  0  0  0  0  0  0
   -5.3342    0.3965   -0.2544 H   0  0  0  0  0  0  0  0  0  0  0  0
   -4.1476   -0.0070   -1.5478 H   0  0  0  0  0  0  0  0  0  0  0  0
   -4.1085    1.5942   -0.7304 H   0  0  0  0  0  0  0  0  0  0  0  0
   -3.1925   -2.0185    1.5500 H   0  0  0  0  0  0  0  0  0  0  0  0
   -3.8417   -2.1438   -0.1426 H   0  0  0  0  0  0  0  0  0  0  0  0
   -4.8654   -1.5055    1.1743 H   0  0  0  0  0  0  0  0  0  0  0  0
   -2.6801    0.3300    2.5401 H   0  0  0  0  0  0  0  0  0  0  0  0
   -4.4394    0.5854    2.2537 H   0  0  0  0  0  0  0  0  0  0  0  0
   -3.2719    1.7887    1.6696 H   0  0  0  0  0  0  0  0  0  0  0  0
  1  2  1  0
  2  3  2  0
  3  4  1  0
  4  5  2  0
  5  6  1  0
  5  7  1  0
  7  8  1  0
  7  9  2  0
  9 10  1  0
 10 11  1  0
 11 12  2  0
 12 13  1  0
 13 14  1  0
 14 15  1  0
  4 16  1  0
 16 17  1  0
 16 18  1  0
 16 19  1  0
  9  2  1  0
 15 11  1  0
  1 20  1  0
  1 21  1  0
  1 22  1  0
  3 23  1  0
  6 24  1  0
  8 25  1  0
  8 26  1  0
  8 27  1  0
 10 28  1  0
 10 29  1  0
 13 30  1  0
 13 31  1  0
 14 32  1  0
 14 33  1  0
 15 34  1  0
 17 35  1  0
 17 36  1  0
 17 37  1  0
 18 38  1  0
 18 39  1  0
 18 40  1  0
 19 41  1  0
 19 42  1  0
 19 43  1  0
M  END
$$$$
