
     RDKit          3D

 50 53  0  0  0  0  0  0  0  0999 V2000
    1.1264   -3.3152    1.7642 C   0  0  0  0  0  0  0  0  0  0  0  0
    1.9851   -2.2433    1.1448 C   0  0  0  0  0  0  0  0  0  0  0  0
    3.3744   -2.2942    1.3353 C   0  0  0  0  0  0  0  0  0  0  0  0
    4.2094   -1.3345    0.7612 C   0  0  0  0  0  0  0  0  0  0  0  0
    3.6735   -0.2978   -0.0187 C   0  0  0  0  0  0  0  0  0  0  0  0
    2.2805   -0.2239   -0.1860 C   0  0  0  0  0  0  0  0  0  0  0  0
    1.4288   -1.1773    0.3971 C   0  0  0  0  0  0  0  0  0  0  0  0
   -0.0319   -1.0352    0.2018 C   0  0  0  0  0  0  0  0  0  0  0  0
   -0.8848   -0.8613    1.3015 C   0  0  0  0  0  0  0  0  0  0  0  0
   -2.2622   -0.7165    1.1127 C   0  0  0  0  0  0  0  0  0  0  0  0
   -2.8102   -0.7287   -0.1829 C   0  0  0  0  0  0  0  0  0  0  0  0
   -1.9505   -0.9041   -1.2819 C   0  0  0  0  0  0  0  0  0  0  0  0
   -0.5735   -1.0475   -1.0915 C   0  0  0  0  0  0  0  0  0  0  0  0
   -4.2694   -0.5827   -0.4023 C   0  0  0  0  0  0  0  0  0  0  0  0
   -4.7871   -1.0698   -1.4447 O   0  0  0  0  0  0  0  0  0  0  0  0
   -5.0988    0.1161    0.5418 N   0  0  0  0  0  0  0  0  0  0  0  0
   -6.5513    0.1881    0.4031 C   0  0  0  0  0  0  0  0  0  0  0  0
   -6.9255    1.1465   -0.7348 C   0  0  0  0  0  0  0  0  0  0  0  0
   -8.2771    1.8291   -0.5919 C   0  0  0  0  0  0  0  0  0  0  0  0
   -6.9976    2.6159   -0.3491 C   0  0  0  0  0  0  0  0  0  0  0  0
    4.5508    0.7281   -0.6330 C   0  0  0  0  0  0  0  0  0  0  0  0
    4.0719    1.8578   -0.9277 O   0  0  0  0  0  0  0  0  0  0  0  0
    5.9323    0.4534   -0.9096 N   0  0  0  0  0  0  0  0  0  0  0  0
    6.8274    1.4933   -1.4073 C   0  0  0  0  0  0  0  0  0  0  0  0
    7.2853    2.4569   -0.3257 C   0  0  0  0  0  0  0  0  0  0  0  0
    8.2410    1.4014   -0.8595 C   0  0  0  0  0  0  0  0  0  0  0  0
    1.7134   -4.2407    1.9459 H   0  0  0  0  0  0  0  0  0  0  0  0
    0.2860   -3.5845    1.0904 H   0  0  0  0  0  0  0  0  0  0  0  0
    0.7237   -2.9573    2.7341 H   0  0  0  0  0  0  0  0  0  0  0  0
    3.8170   -3.0841    1.9299 H   0  0  0  0  0  0  0  0  0  0  0  0
    5.2728   -1.3981    0.9494 H   0  0  0  0  0  0  0  0  0  0  0  0
    1.8510    0.5823   -0.7698 H   0  0  0  0  0  0  0  0  0  0  0  0
   -0.4830   -0.8331    2.3067 H   0  0  0  0  0  0  0  0  0  0  0  0
   -2.8929   -0.6179    1.9856 H   0  0  0  0  0  0  0  0  0  0  0  0
   -2.3424   -0.9186   -2.2915 H   0  0  0  0  0  0  0  0  0  0  0  0
    0.0706   -1.1766   -1.9528 H   0  0  0  0  0  0  0  0  0  0  0  0
   -4.6662    0.6086    1.3543 H   0  0  0  0  0  0  0  0  0  0  0  0
   -6.9575   -0.8220    0.1826 H   0  0  0  0  0  0  0  0  0  0  0  0
   -6.9910    0.5161    1.3714 H   0  0  0  0  0  0  0  0  0  0  0  0
   -6.6071    0.9382   -1.7783 H   0  0  0  0  0  0  0  0  0  0  0  0
   -8.8497    1.6029    0.3330 H   0  0  0  0  0  0  0  0  0  0  0  0
   -8.7756    2.0703   -1.5545 H   0  0  0  0  0  0  0  0  0  0  0  0
   -6.8067    2.8517    0.7199 H   0  0  0  0  0  0  0  0  0  0  0  0
   -6.7383    3.3188   -1.1686 H   0  0  0  0  0  0  0  0  0  0  0  0
    6.2801   -0.5312   -0.8978 H   0  0  0  0  0  0  0  0  0  0  0  0
    6.6706    1.9084   -2.4254 H   0  0  0  0  0  0  0  0  0  0  0  0
    6.9056    2.2475    0.6975 H   0  0  0  0  0  0  0  0  0  0  0  0
    7.4987    3.4847   -0.6876 H   0  0  0  0  0  0  0  0  0  0  0  0
    9.0222    1.8014   -1.5397 H   0  0  0  0  0  0  0  0  0  0  0  0
    8.4318    0.5662   -0.1519 H   0  0  0  0  0  0  0  0  0  0  0  0
  1  2  1  0
  2  3  2  0
  3  4  1  0
  4  5  2  0
  5  6  1  0
  6  7  2  0
  7  8  1  0
  8  9  2  0
  9 10  1  0
 10 11  2  0
 11 12  1  0
 12 13  2  0
 11 14  1  0
 14 15  2  0
 14 16  1  0
 16 17  1  0
 17 18  1  0
 18 19  1  0
 19 20  1  0
  5 21  1  0
 21 22  2  0
 21 23  1  0
 23 24  1  0
 24 25  1  0
 25 26  1  0
  7  2  1  0
 13  8  1  0
 20 18  1  0
 26 24  1  0
  1 27  1  0
  1 28  1  0
  1 29  1  0
  3 30  1  0
  4 31  1  0
  6 32  1  0
  9 33  1  0
 10 34  1  0
 12 35  1  0
 13 36  1  0
 16 37  1  0
 17 38  1  0
 17 39  1  0
 18 40  1  0
 19 41  1  0
 19 42  1  0
 20 43  1  0
 20 44  1  0
 23 45  1  0
 24 46  1  0
 25 47  1  0
 25 48  1  0
 26 49  1  0
 26 50  1  0
M  END
$$$$
