
     RDKit          3D

 49 52  0  0  0  0  0  0  0  0999 V2000
   -1.8044    1.3615   -2.1469 C   0  0  0  0  0  0  0  0  0  0  0  0
   -2.4201   -0.0187   -1.8230 C   0  0  1  0  0  0  0  0  0  0  0  0
   -1.4750   -1.1113   -1.8725 O   0  0  0  0  0  0  0  0  0  0  0  0
   -0.1052   -0.9558   -2.1494 C   0  0  0  0  0  0  0  0  0  0  0  0
    0.3897   -0.4622   -3.3713 C   0  0  0  0  0  0  0  0  0  0  0  0
   -0.4165   -0.4676   -4.5507 N   0  0  0  0  0  0  0  0  0  0  0  0
    1.6509    0.0583   -3.4154 N   0  0  0  0  0  0  0  0  0  0  0  0
    2.4388    0.1207   -2.3039 C   0  0  0  0  0  0  0  0  0  0  0  0
    1.9929   -0.4566   -1.1069 C   0  0  0  0  0  0  0  0  0  0  0  0
    0.8004   -1.1614   -1.1232 C   0  0  0  0  0  0  0  0  0  0  0  0
    2.6008   -0.1556    0.2021 C   0  0  0  0  0  0  0  0  0  0  0  0
    3.9351   -0.1754    0.5537 C   0  0  0  0  0  0  0  0  0  0  0  0
    5.0399   -0.5502   -0.2934 C   0  0  0  0  0  0  0  0  0  0  0  0
    5.9265   -0.8510   -0.9734 N   0  0  0  0  0  0  0  0  0  0  0  0
    4.0411    0.1770    1.8511 N   0  0  0  0  0  0  0  0  0  0  0  0
    5.2730    0.2744    2.6257 C   0  0  0  0  0  0  0  0  0  0  0  0
    2.8406    0.4403    2.3466 N   0  0  0  0  0  0  0  0  0  0  0  0
    1.9346    0.2471    1.3649 C   0  0  0  0  0  0  0  0  0  0  0  0
    0.4520    0.5315    1.5398 C   0  0  0  0  0  0  0  0  0  0  0  0
   -0.3174   -0.6918    1.8249 N   0  0  0  0  0  0  0  0  0  0  0  0
    0.0592   -1.5572    2.9446 C   0  0  0  0  0  0  0  0  0  0  0  0
   -1.4812   -1.0508    1.0461 C   0  0  0  0  0  0  0  0  0  0  0  0
   -1.6544   -2.2534    0.7072 O   0  0  0  0  0  0  0  0  0  0  0  0
   -2.5735   -0.0971    0.7979 C   0  0  0  0  0  0  0  0  0  0  0  0
   -3.1640    0.1051   -0.4878 C   0  0  0  0  0  0  0  0  0  0  0  0
   -4.4200    0.7489   -0.5450 C   0  0  0  0  0  0  0  0  0  0  0  0
   -5.0468    1.2228    0.6074 C   0  0  0  0  0  0  0  0  0  0  0  0
   -6.2422    1.8564    0.5168 F   0  0  0  0  0  0  0  0  0  0  0  0
   -4.4285    1.0810    1.8452 C   0  0  0  0  0  0  0  0  0  0  0  0
   -3.2060    0.4205    1.9414 C   0  0  0  0  0  0  0  0  0  0  0  0
   -0.9301    1.5683   -1.4957 H   0  0  0  0  0  0  0  0  0  0  0  0
   -2.5480    2.1723   -1.9920 H   0  0  0  0  0  0  0  0  0  0  0  0
   -1.5024    1.4251   -3.2094 H   0  0  0  0  0  0  0  0  0  0  0  0
   -3.1709   -0.2283   -2.6163 H   0  0  0  0  0  0  0  0  0  0  0  0
   -1.3727   -0.8871   -4.5484 H   0  0  0  0  0  0  0  0  0  0  0  0
   -0.0462   -0.0675   -5.4411 H   0  0  0  0  0  0  0  0  0  0  0  0
    3.3811    0.6504   -2.3464 H   0  0  0  0  0  0  0  0  0  0  0  0
    0.5302   -1.7418   -0.2658 H   0  0  0  0  0  0  0  0  0  0  0  0
    5.7845   -0.7109    2.6421 H   0  0  0  0  0  0  0  0  0  0  0  0
    5.0475    0.5788    3.6699 H   0  0  0  0  0  0  0  0  0  0  0  0
    5.9443    1.0312    2.1681 H   0  0  0  0  0  0  0  0  0  0  0  0
    0.3135    1.2462    2.3788 H   0  0  0  0  0  0  0  0  0  0  0  0
    0.0689    1.0285    0.6244 H   0  0  0  0  0  0  0  0  0  0  0  0
    0.4087   -2.5378    2.5588 H   0  0  0  0  0  0  0  0  0  0  0  0
   -0.8174   -1.7152    3.6081 H   0  0  0  0  0  0  0  0  0  0  0  0
    0.8699   -1.1019    3.5511 H   0  0  0  0  0  0  0  0  0  0  0  0
   -4.8924    0.9402   -1.5012 H   0  0  0  0  0  0  0  0  0  0  0  0
   -4.9104    1.4582    2.7381 H   0  0  0  0  0  0  0  0  0  0  0  0
   -2.7780    0.2615    2.9244 H   0  0  0  0  0  0  0  0  0  0  0  0
  1  2  1  0
  2  3  1  0
  3  4  1  0
  4  5  1  0
  5  6  1  0
  5  7  2  0
  7  8  1  0
  8  9  2  0
  9 10  1  0
  9 11  1  0
 11 12  2  0
 12 13  1  0
 13 14  3  0
 12 15  1  0
 15 16  1  0
 15 17  1  0
 17 18  2  0
 18 19  1  0
 19 20  1  0
 20 21  1  0
 20 22  1  0
 22 23  2  0
 22 24  1  0
 24 25  2  0
 25 26  1  0
 26 27  2  0
 27 28  1  0
 27 29  1  0
 29 30  2  0
 25  2  1  0
 10  4  2  0
 18 11  1  0
 30 24  1  0
  1 31  1  0
  1 32  1  0
  1 33  1  0
  2 34  1  6
  6 35  1  0
  6 36  1  0
  8 37  1  0
 10 38  1  0
 16 39  1  0
 16 40  1  0
 16 41  1  0
 19 42  1  0
 19 43  1  0
 21 44  1  0
 21 45  1  0
 21 46  1  0
 26 47  1  0
 29 48  1  0
 30 49  1  0
M  END
$$$$
