
     RDKit          3D

 57 60  0  0  0  0  0  0  0  0999 V2000
    1.1669   -0.9845   -0.2107 C   0  0  2  0  0  0  0  0  0  0  0  0
    0.0681   -0.4167   -1.1533 C   0  0  1  0  0  0  0  0  0  0  0  0
    0.1291   -1.1101   -2.3758 O   0  0  0  0  0  0  0  0  0  0  0  0
   -1.3368   -0.5355   -0.4944 C   0  0  1  0  0  0  0  0  0  0  0  0
   -1.2901    0.3852    0.7058 C   0  0  0  0  0  0  0  0  0  0  0  0
   -2.4041    1.3164    0.9449 C   0  0  0  0  0  0  0  0  0  0  0  0
   -2.2022    2.4261    1.5099 O   0  0  0  0  0  0  0  0  0  0  0  0
   -3.7351    0.9774    0.4314 C   0  0  0  0  0  0  0  0  0  0  0  0
   -3.8194    0.2211   -0.7599 C   0  0  0  0  0  0  0  0  0  0  0  0
   -5.0929    0.0611   -1.3566 C   0  0  0  0  0  0  0  0  0  0  0  0
   -6.2439    0.5481   -0.7414 C   0  0  0  0  0  0  0  0  0  0  0  0
   -6.1573    1.2123    0.4759 C   0  0  0  0  0  0  0  0  0  0  0  0
   -4.9173    1.4205    1.0796 C   0  0  0  0  0  0  0  0  0  0  0  0
   -4.9029    2.0410    2.3312 O   0  0  0  0  0  0  0  0  0  0  0  0
   -2.5403   -0.2562   -1.4877 C   0  0  2  0  0  0  0  0  0  0  0  0
   -2.8475   -1.5757   -2.2617 C   0  0  0  0  0  0  0  0  0  0  0  0
   -2.1495    0.7488   -2.3958 O   0  0  0  0  0  0  0  0  0  0  0  0
   -0.2388    0.3237    1.5525 C   0  0  0  0  0  0  0  0  0  0  0  0
   -0.2563    1.1240    2.7023 O   0  0  0  0  0  0  0  0  0  0  0  0
    0.9020   -0.6860    1.3288 C   0  0  1  0  0  0  0  0  0  0  0  0
    0.5339   -1.9064    1.9375 O   0  0  0  0  0  0  0  0  0  0  0  0
    2.1615   -0.1652    1.9959 C   0  0  0  0  0  0  0  0  0  0  0  0
    2.4322   -0.4809    3.1876 O   0  0  0  0  0  0  0  0  0  0  0  0
    3.0340    0.7696    1.2754 C   0  0  0  0  0  0  0  0  0  0  0  0
    3.6489    1.8889    2.0180 C   0  0  0  0  0  0  0  0  0  0  0  0
    3.4598    3.2382    1.5894 N   0  0  0  0  0  0  0  0  0  0  0  0
    4.3027    1.6580    3.0698 O   0  0  0  0  0  0  0  0  0  0  0  0
    3.2285    0.5793   -0.0408 C   0  0  0  0  0  0  0  0  0  0  0  0
    4.0670    1.4098   -0.7925 O   0  0  0  0  0  0  0  0  0  0  0  0
    2.5953   -0.6019   -0.7537 C   0  0  1  0  0  0  0  0  0  0  0  0
    3.4894   -1.7941   -0.8283 N   0  0  0  0  0  0  0  0  0  0  0  0
    3.9289   -2.3155    0.4775 C   0  0  0  0  0  0  0  0  0  0  0  0
    4.6554   -1.5658   -1.7000 C   0  0  0  0  0  0  0  0  0  0  0  0
    1.0844   -2.0899   -0.3341 H   0  0  0  0  0  0  0  0  0  0  0  0
    0.2848    0.6699   -1.3179 H   0  0  0  0  0  0  0  0  0  0  0  0
    0.1278   -0.4376   -3.1059 H   0  0  0  0  0  0  0  0  0  0  0  0
   -1.4602   -1.5689   -0.0957 H   0  0  0  0  0  0  0  0  0  0  0  0
   -5.2134   -0.4272   -2.3118 H   0  0  0  0  0  0  0  0  0  0  0  0
   -7.2092    0.4052   -1.2102 H   0  0  0  0  0  0  0  0  0  0  0  0
   -7.0610    1.5627    0.9587 H   0  0  0  0  0  0  0  0  0  0  0  0
   -4.0884    2.0708    2.9293 H   0  0  0  0  0  0  0  0  0  0  0  0
   -3.4388   -2.2679   -1.6236 H   0  0  0  0  0  0  0  0  0  0  0  0
   -1.9441   -2.1309   -2.5670 H   0  0  0  0  0  0  0  0  0  0  0  0
   -3.4134   -1.3778   -3.1957 H   0  0  0  0  0  0  0  0  0  0  0  0
   -2.8978    0.9048   -3.0301 H   0  0  0  0  0  0  0  0  0  0  0  0
    0.4352    1.0631    3.4371 H   0  0  0  0  0  0  0  0  0  0  0  0
    0.2487   -1.7255    2.8724 H   0  0  0  0  0  0  0  0  0  0  0  0
    3.9019    4.0244    2.1152 H   0  0  0  0  0  0  0  0  0  0  0  0
    2.8483    3.4579    0.7719 H   0  0  0  0  0  0  0  0  0  0  0  0
    4.6421    2.1389   -0.3915 H   0  0  0  0  0  0  0  0  0  0  0  0
    2.4551   -0.2509   -1.8010 H   0  0  0  0  0  0  0  0  0  0  0  0
    4.5251   -3.2424    0.3350 H   0  0  0  0  0  0  0  0  0  0  0  0
    3.0565   -2.6014    1.0974 H   0  0  0  0  0  0  0  0  0  0  0  0
    4.5575   -1.5776    1.0209 H   0  0  0  0  0  0  0  0  0  0  0  0
    5.1928   -2.5230   -1.8720 H   0  0  0  0  0  0  0  0  0  0  0  0
    5.3628   -0.8384   -1.2462 H   0  0  0  0  0  0  0  0  0  0  0  0
    4.3342   -1.1934   -2.6962 H   0  0  0  0  0  0  0  0  0  0  0  0
  1  2  1  0
  2  3  1  0
  2  4  1  0
  4  5  1  0
  5  6  1  0
  6  7  2  0
  6  8  1  0
  8  9  2  0
  9 10  1  0
 10 11  2  0
 11 12  1  0
 12 13  2  0
 13 14  1  0
  9 15  1  0
 15 16  1  0
 15 17  1  6
  5 18  2  0
 18 19  1  0
 18 20  1  0
 20 21  1  1
 20 22  1  0
 22 23  2  0
 22 24  1  0
 24 25  1  0
 25 26  1  0
 25 27  2  0
 24 28  2  0
 28 29  1  0
 28 30  1  0
 30 31  1  0
 31 32  1  0
 31 33  1  0
 20  1  1  0
 30  1  1  0
 15  4  1  0
 13  8  1  0
  1 34  1  1
  2 35  1  6
  3 36  1  0
  4 37  1  1
 10 38  1  0
 11 39  1  0
 12 40  1  0
 14 41  1  0
 16 42  1  0
 16 43  1  0
 16 44  1  0
 17 45  1  0
 19 46  1  0
 21 47  1  0
 26 48  1  0
 26 49  1  0
 29 50  1  0
 30 51  1  6
 32 52  1  0
 32 53  1  0
 32 54  1  0
 33 55  1  0
 33 56  1  0
 33 57  1  0
M  END
$$$$
