
     RDKit          3D

 31 30  0  0  0  0  0  0  0  0999 V2000
    2.5281    1.7045    0.2014 N   0  0  0  0  0  0  0  0  0  0  0  0
    3.0528    0.3753    0.5219 C   0  0  1  0  0  0  0  0  0  0  0  0
    2.5338   -0.6760   -0.4830 C   0  0  0  0  0  0  0  0  0  0  0  0
    1.0749   -1.1018   -0.2364 C   0  0  0  0  0  0  0  0  0  0  0  0
    0.0551   -0.0162   -0.6057 C   0  0  0  0  0  0  0  0  0  0  0  0
   -1.3081   -0.5433   -0.5505 N   0  0  0  0  0  0  0  0  0  0  0  0
   -2.4410    0.2834   -0.8464 C   0  0  0  0  0  0  0  0  0  0  0  0
   -2.2794    1.4894   -1.1779 O   0  0  0  0  0  0  0  0  0  0  0  0
   -3.8270   -0.2658   -0.7185 C   0  0  0  0  0  0  0  0  0  0  0  0
   -4.4189   -0.0849    0.9922 P   0  0  0  0  0  5  0  0  0  0  0  0
   -5.9845   -0.7156    1.1104 O   0  0  0  0  0  0  0  0  0  0  0  0
   -3.4012   -0.9330    2.0463 O   0  0  0  0  0  0  0  0  0  0  0  0
   -4.4384    1.3785    1.3740 O   0  0  0  0  0  0  0  0  0  0  0  0
    4.5592    0.3998    0.5207 C   0  0  0  0  0  0  0  0  0  0  0  0
    5.2532    0.6379   -0.6625 O   0  0  0  0  0  0  0  0  0  0  0  0
    5.1941    0.2160    1.5937 O   0  0  0  0  0  0  0  0  0  0  0  0
    2.8556    2.3797    0.9306 H   0  0  0  0  0  0  0  0  0  0  0  0
    2.9139    2.0232   -0.7178 H   0  0  0  0  0  0  0  0  0  0  0  0
    2.7070    0.0936    1.5421 H   0  0  0  0  0  0  0  0  0  0  0  0
    3.1572   -1.5934   -0.3909 H   0  0  0  0  0  0  0  0  0  0  0  0
    2.6530   -0.3089   -1.5263 H   0  0  0  0  0  0  0  0  0  0  0  0
    0.9385   -1.3989    0.8264 H   0  0  0  0  0  0  0  0  0  0  0  0
    0.8746   -1.9993   -0.8622 H   0  0  0  0  0  0  0  0  0  0  0  0
    0.1343    0.8298    0.1080 H   0  0  0  0  0  0  0  0  0  0  0  0
    0.2596    0.3546   -1.6336 H   0  0  0  0  0  0  0  0  0  0  0  0
   -1.4740   -1.5368   -0.2691 H   0  0  0  0  0  0  0  0  0  0  0  0
   -3.8369   -1.3407   -0.9961 H   0  0  0  0  0  0  0  0  0  0  0  0
   -4.5150    0.2769   -1.4009 H   0  0  0  0  0  0  0  0  0  0  0  0
   -6.5212   -0.1857    0.4683 H   0  0  0  0  0  0  0  0  0  0  0  0
   -2.5651   -0.4030    2.0786 H   0  0  0  0  0  0  0  0  0  0  0  0
    6.2659    0.6609   -0.6752 H   0  0  0  0  0  0  0  0  0  0  0  0
  1  2  1  0
  2  3  1  0
  3  4  1  0
  4  5  1  0
  5  6  1  0
  6  7  1  0
  7  8  2  0
  7  9  1  0
  9 10  1  0
 10 11  1  0
 10 12  1  0
 10 13  2  0
  2 14  1  0
 14 15  1  0
 14 16  2  0
  1 17  1  0
  1 18  1  0
  2 19  1  1
  3 20  1  0
  3 21  1  0
  4 22  1  0
  4 23  1  0
  5 24  1  0
  5 25  1  0
  6 26  1  0
  9 27  1  0
  9 28  1  0
 11 29  1  0
 12 30  1  0
 15 31  1  0
M  END
$$$$
