
     RDKit          3D

 34 36  0  0  0  0  0  0  0  0999 V2000
    5.5620    0.3229    1.5090 C   0  0  0  0  0  0  0  0  0  0  0  0
    4.5730   -0.2420    0.5320 C   0  0  0  0  0  0  0  0  0  0  0  0
    4.9894   -1.1613   -0.4385 C   0  0  0  0  0  0  0  0  0  0  0  0
    4.0644   -1.7218   -1.3219 C   0  0  0  0  0  0  0  0  0  0  0  0
    4.6726   -2.9634   -2.6454 Br  0  0  0  0  0  0  0  0  0  0  0  0
    2.7083   -1.3757   -1.2368 C   0  0  0  0  0  0  0  0  0  0  0  0
    1.8087   -1.9326   -2.1409 O   0  0  0  0  0  1  0  0  0  0  0  0
    2.2691   -0.4639   -0.2515 C   0  0  0  0  0  0  0  0  0  0  0  0
    3.2142    0.0896    0.6327 C   0  0  0  0  0  0  0  0  0  0  0  0
    0.8348   -0.0972   -0.1288 C   0  0  0  0  0  0  0  0  0  0  0  0
   -0.1756   -0.8821   -0.5940 N   0  0  0  0  0  0  0  0  0  0  0  0
   -1.2776   -0.1820   -0.2737 C   0  0  0  0  0  0  0  0  0  0  0  0
   -2.6045   -0.5229   -0.5210 C   0  0  0  0  0  0  0  0  0  0  0  0
   -3.6137    0.3727   -0.0925 C   0  0  0  0  0  0  0  0  0  0  0  0
   -3.2430    1.5805    0.5625 C   0  0  0  0  0  0  0  0  0  0  0  0
   -1.8894    1.8886    0.7924 C   0  0  0  0  0  0  0  0  0  0  0  0
   -0.9372    0.9730    0.3574 C   0  0  0  0  0  0  0  0  0  0  0  0
    0.3950    1.0469    0.4596 N   0  0  0  0  0  0  0  0  0  0  0  0
   -5.0421    0.0527   -0.3379 C   0  0  0  0  0  0  0  0  0  0  0  0
   -5.4278   -0.6018   -1.5526 N   0  0  0  0  0  0  0  0  0  0  0  0
   -5.9502    0.3525    0.5431 N   0  0  0  0  0  4  0  0  0  0  0  0
    5.6123   -0.3321    2.4036 H   0  0  0  0  0  0  0  0  0  0  0  0
    5.2607    1.3447    1.8241 H   0  0  0  0  0  0  0  0  0  0  0  0
    6.5721    0.3899    1.0516 H   0  0  0  0  0  0  0  0  0  0  0  0
    6.0330   -1.4431   -0.5088 H   0  0  0  0  0  0  0  0  0  0  0  0
    2.8986    0.7644    1.4178 H   0  0  0  0  0  0  0  0  0  0  0  0
   -2.8434   -1.4576   -1.0123 H   0  0  0  0  0  0  0  0  0  0  0  0
   -3.9968    2.2912    0.8760 H   0  0  0  0  0  0  0  0  0  0  0  0
   -1.6004    2.8073    1.2861 H   0  0  0  0  0  0  0  0  0  0  0  0
    0.9524    1.8256    0.8755 H   0  0  0  0  0  0  0  0  0  0  0  0
   -4.7357   -0.7748   -2.3147 H   0  0  0  0  0  0  0  0  0  0  0  0
   -6.4219   -0.8743   -1.7203 H   0  0  0  0  0  0  0  0  0  0  0  0
   -5.7055    0.7957    1.4565 H   0  0  0  0  0  0  0  0  0  0  0  0
   -6.9559    0.1302    0.3697 H   0  0  0  0  0  0  0  0  0  0  0  0
  1  2  1  0
  2  3  2  0
  3  4  1  0
  4  5  1  0
  4  6  2  0
  6  7  1  0
  6  8  1  0
  8  9  2  0
  8 10  1  0
 10 11  2  0
 11 12  1  0
 12 13  2  0
 13 14  1  0
 14 15  2  0
 15 16  1  0
 16 17  2  0
 17 18  1  0
 14 19  1  0
 19 20  1  0
 19 21  2  3
  9  2  1  0
 18 10  1  0
 17 12  1  0
  1 22  1  0
  1 23  1  0
  1 24  1  0
  3 25  1  0
  9 26  1  0
 13 27  1  0
 15 28  1  0
 16 29  1  0
 18 30  1  0
 20 31  1  0
 20 32  1  0
 21 33  1  0
 21 34  1  0
M  CHG  2   7  -1  21   1
M  END
$$$$
