
     RDKit          3D

 47 49  0  0  0  0  0  0  0  0999 V2000
    8.0609   -1.4782    0.9288 N   0  0  0  0  0  0  0  0  0  0  0  0
    7.2780   -1.2688   -0.5978 S   0  0  0  0  0  6  0  0  0  0  0  0
    8.0375   -0.2632   -1.4169 O   0  0  0  0  0  0  0  0  0  0  0  0
    7.2623   -2.5776   -1.3367 O   0  0  0  0  0  0  0  0  0  0  0  0
    5.6282   -0.7076   -0.3445 C   0  0  0  0  0  0  0  0  0  0  0  0
    5.3545    0.6630   -0.2661 C   0  0  0  0  0  0  0  0  0  0  0  0
    4.0475    1.1091   -0.0501 C   0  0  0  0  0  0  0  0  0  0  0  0
    2.9919    0.1898    0.0879 C   0  0  0  0  0  0  0  0  0  0  0  0
    3.2782   -1.1866    0.0285 C   0  0  0  0  0  0  0  0  0  0  0  0
    4.5867   -1.6297   -0.1865 C   0  0  0  0  0  0  0  0  0  0  0  0
    1.6117    0.6791    0.3202 C   0  0  0  0  0  0  0  0  0  0  0  0
    1.4410    1.8102    0.8527 O   0  0  0  0  0  0  0  0  0  0  0  0
    0.4690   -0.1046   -0.0640 N   0  0  0  0  0  0  0  0  0  0  0  0
   -0.9028    0.3183    0.2174 C   0  0  0  0  0  0  0  0  0  0  0  0
   -1.3600    1.4174   -0.7638 C   0  0  1  0  0  0  0  0  0  0  0  0
   -1.3400    0.9131   -2.2151 C   0  0  0  0  0  0  0  0  0  0  0  0
   -2.7404    1.9966   -0.3761 C   0  0  0  0  0  0  0  0  0  0  0  0
   -3.8099    0.9925   -0.4285 N   0  0  0  0  0  0  0  0  0  0  0  0
   -4.5206    0.6504   -1.5311 C   0  0  0  0  0  0  0  0  0  0  0  0
   -5.4514   -0.3365   -1.2304 C   0  0  0  0  0  0  0  0  0  0  0  0
   -5.2926   -0.5874    0.1149 C   0  0  0  0  0  0  0  0  0  0  0  0
   -5.9674   -1.4751    0.9500 C   0  0  0  0  0  0  0  0  0  0  0  0
   -5.5988   -1.5097    2.3062 C   0  0  0  0  0  0  0  0  0  0  0  0
   -4.5793   -0.6623    2.7913 C   0  0  0  0  0  0  0  0  0  0  0  0
   -3.9165    0.2257    1.9248 C   0  0  0  0  0  0  0  0  0  0  0  0
   -4.2955    0.2341    0.5778 C   0  0  0  0  0  0  0  0  0  0  0  0
    8.0122   -0.5601    1.4249 H   0  0  0  0  0  0  0  0  0  0  0  0
    7.4801   -2.1492    1.4799 H   0  0  0  0  0  0  0  0  0  0  0  0
    6.1522    1.3876   -0.3696 H   0  0  0  0  0  0  0  0  0  0  0  0
    3.8607    2.1748   -0.0007 H   0  0  0  0  0  0  0  0  0  0  0  0
    2.5027   -1.9258    0.1756 H   0  0  0  0  0  0  0  0  0  0  0  0
    4.7878   -2.6930   -0.2200 H   0  0  0  0  0  0  0  0  0  0  0  0
    0.6002   -1.0031   -0.5790 H   0  0  0  0  0  0  0  0  0  0  0  0
   -1.5752   -0.5628    0.1317 H   0  0  0  0  0  0  0  0  0  0  0  0
   -0.9629    0.6860    1.2642 H   0  0  0  0  0  0  0  0  0  0  0  0
   -0.6374    2.2600   -0.7005 H   0  0  0  0  0  0  0  0  0  0  0  0
   -1.9381   -0.0162   -2.3218 H   0  0  0  0  0  0  0  0  0  0  0  0
   -1.7458    1.6880   -2.8997 H   0  0  0  0  0  0  0  0  0  0  0  0
   -0.2973    0.6954   -2.5295 H   0  0  0  0  0  0  0  0  0  0  0  0
   -2.9914    2.8332   -1.0648 H   0  0  0  0  0  0  0  0  0  0  0  0
   -2.6854    2.4440    0.6389 H   0  0  0  0  0  0  0  0  0  0  0  0
   -4.3759    1.0915   -2.5089 H   0  0  0  0  0  0  0  0  0  0  0  0
   -6.1541   -0.8025   -1.9084 H   0  0  0  0  0  0  0  0  0  0  0  0
   -6.7518   -2.1166    0.5694 H   0  0  0  0  0  0  0  0  0  0  0  0
   -6.1024   -2.1876    2.9830 H   0  0  0  0  0  0  0  0  0  0  0  0
   -4.3073   -0.6940    3.8383 H   0  0  0  0  0  0  0  0  0  0  0  0
   -3.1431    0.8782    2.3040 H   0  0  0  0  0  0  0  0  0  0  0  0
  1  2  1  0
  2  3  2  0
  2  4  2  0
  2  5  1  0
  5  6  2  0
  6  7  1  0
  7  8  2  0
  8  9  1  0
  9 10  2  0
  8 11  1  0
 11 12  2  0
 11 13  1  0
 13 14  1  0
 14 15  1  0
 15 16  1  0
 15 17  1  0
 17 18  1  0
 18 19  1  0
 19 20  2  0
 20 21  1  0
 21 22  2  0
 22 23  1  0
 23 24  2  0
 24 25  1  0
 25 26  2  0
 10  5  1  0
 26 18  1  0
 26 21  1  0
  1 27  1  0
  1 28  1  0
  6 29  1  0
  7 30  1  0
  9 31  1  0
 10 32  1  0
 13 33  1  0
 14 34  1  0
 14 35  1  0
 15 36  1  6
 16 37  1  0
 16 38  1  0
 16 39  1  0
 17 40  1  0
 17 41  1  0
 19 42  1  0
 20 43  1  0
 22 44  1  0
 23 45  1  0
 24 46  1  0
 25 47  1  0
M  END
$$$$
