
     RDKit          3D

 49 51  0  0  0  0  0  0  0  0999 V2000
   -3.6095    3.1530   -0.1227 N   0  0  0  0  0  0  0  0  0  0  0  0
   -2.5285    3.5369    0.7375 C   0  0  0  0  0  0  0  0  0  0  0  0
   -1.9346    2.6827    1.5217 N   0  0  0  0  0  0  0  0  0  0  0  0
   -2.2220    1.2520    1.6333 C   0  0  0  0  0  0  0  0  0  0  0  0
   -1.6423    0.4694    0.4391 C   0  0  2  0  0  0  0  0  0  0  0  0
   -1.9344   -0.9223    0.5768 O   0  0  0  0  0  0  0  0  0  0  0  0
   -3.1997   -1.4792    0.3515 C   0  0  0  0  0  0  0  0  0  0  0  0
   -4.1502   -0.7533   -0.0514 O   0  0  0  0  0  0  0  0  0  0  0  0
   -3.4149   -2.9238    0.5802 C   0  0  0  0  0  0  0  0  0  0  0  0
   -2.3637   -3.7409    1.0299 C   0  0  0  0  0  0  0  0  0  0  0  0
   -2.5682   -5.0691    1.2392 N   0  0  0  0  0  0  0  0  0  0  0  0
   -3.7781   -5.6495    1.0253 C   0  0  0  0  0  0  0  0  0  0  0  0
   -4.8527   -4.8797    0.5790 C   0  0  0  0  0  0  0  0  0  0  0  0
   -4.6704   -3.5137    0.3562 C   0  0  0  0  0  0  0  0  0  0  0  0
   -0.1437    0.6555    0.3603 C   0  0  0  0  0  0  0  0  0  0  0  0
    0.4090    1.5561   -0.5653 C   0  0  0  0  0  0  0  0  0  0  0  0
    1.7913    1.7549   -0.6213 C   0  0  0  0  0  0  0  0  0  0  0  0
    2.6423    1.0606    0.2516 C   0  0  0  0  0  0  0  0  0  0  0  0
    2.0927    0.1720    1.1877 C   0  0  0  0  0  0  0  0  0  0  0  0
    0.7103   -0.0260    1.2446 C   0  0  0  0  0  0  0  0  0  0  0  0
    4.2015    1.2806    0.1841 B   0  0  0  0  0  0  0  0  0  0  0  0
    5.0751    0.2766    0.7641 O   0  0  0  0  0  0  0  0  0  0  0  0
    5.6457   -0.2562   -0.3972 C   0  0  0  0  0  0  0  0  0  0  0  0
    5.5348    0.8134   -1.5107 C   0  0  1  0  0  0  0  0  0  0  0  0
    4.9011    0.2680   -2.7977 C   0  0  0  0  0  0  0  0  0  0  0  0
    5.7127   -0.7362   -3.3408 O   0  0  0  0  0  0  0  0  0  0  0  0
    4.7721    1.8802   -1.0111 O   0  0  0  0  0  0  0  0  0  0  0  0
   -2.0922    4.8958    0.7425 N   0  0  0  0  0  0  0  0  0  0  0  0
   -4.0433    3.8602   -0.7563 H   0  0  0  0  0  0  0  0  0  0  0  0
   -4.0116    2.1914   -0.1299 H   0  0  0  0  0  0  0  0  0  0  0  0
   -3.3154    1.0861    1.7319 H   0  0  0  0  0  0  0  0  0  0  0  0
   -1.7596    0.8752    2.5705 H   0  0  0  0  0  0  0  0  0  0  0  0
   -2.1016    0.8334   -0.5060 H   0  0  0  0  0  0  0  0  0  0  0  0
   -1.3808   -3.3275    1.2157 H   0  0  0  0  0  0  0  0  0  0  0  0
   -3.9055   -6.7091    1.2019 H   0  0  0  0  0  0  0  0  0  0  0  0
   -5.8183   -5.3375    0.4074 H   0  0  0  0  0  0  0  0  0  0  0  0
   -5.5086   -2.9220    0.0100 H   0  0  0  0  0  0  0  0  0  0  0  0
   -0.2305    2.1087   -1.2426 H   0  0  0  0  0  0  0  0  0  0  0  0
    2.1916    2.4529   -1.3469 H   0  0  0  0  0  0  0  0  0  0  0  0
    2.7288   -0.3683    1.8785 H   0  0  0  0  0  0  0  0  0  0  0  0
    0.3054   -0.7099    1.9803 H   0  0  0  0  0  0  0  0  0  0  0  0
    6.7132   -0.4963   -0.2025 H   0  0  0  0  0  0  0  0  0  0  0  0
    5.1232   -1.2035   -0.6652 H   0  0  0  0  0  0  0  0  0  0  0  0
    6.5512    1.1977   -1.7513 H   0  0  0  0  0  0  0  0  0  0  0  0
    3.8877   -0.1383   -2.5781 H   0  0  0  0  0  0  0  0  0  0  0  0
    4.7982    1.0990   -3.5308 H   0  0  0  0  0  0  0  0  0  0  0  0
    5.2488   -1.0516   -4.1594 H   0  0  0  0  0  0  0  0  0  0  0  0
   -2.5511    5.6032    0.1269 H   0  0  0  0  0  0  0  0  0  0  0  0
   -1.3057    5.1985    1.3594 H   0  0  0  0  0  0  0  0  0  0  0  0
  1  2  1  0
  2  3  2  3
  3  4  1  0
  4  5  1  0
  5  6  1  0
  6  7  1  0
  7  8  2  0
  7  9  1  0
  9 10  2  0
 10 11  1  0
 11 12  2  0
 12 13  1  0
 13 14  2  0
  5 15  1  0
 15 16  2  0
 16 17  1  0
 17 18  2  0
 18 19  1  0
 19 20  2  0
 18 21  1  0
 21 22  1  0
 22 23  1  0
 23 24  1  0
 24 25  1  0
 25 26  1  0
 24 27  1  0
  2 28  1  0
 14  9  1  0
 20 15  1  0
 27 21  1  0
  1 29  1  0
  1 30  1  0
  4 31  1  0
  4 32  1  0
  5 33  1  6
 10 34  1  0
 12 35  1  0
 13 36  1  0
 14 37  1  0
 16 38  1  0
 17 39  1  0
 19 40  1  0
 20 41  1  0
 23 42  1  0
 23 43  1  0
 24 44  1  6
 25 45  1  0
 25 46  1  0
 26 47  1  0
 28 48  1  0
 28 49  1  0
M  END
$$$$
