
     RDKit          3D

 45 46  0  0  0  0  0  0  0  0999 V2000
    0.2873    2.5062   -0.2908 C   0  0  0  0  0  0  0  0  0  0  0  0
    0.4440    0.9724   -0.2840 C   0  0  0  0  0  0  0  0  0  0  0  0
    1.8647    0.5536    0.1457 C   0  0  0  0  0  0  0  0  0  0  0  0
    2.9379    0.9015   -0.8973 C   0  0  0  0  0  0  0  0  0  0  0  0
    4.2714    0.3334   -0.4900 C   0  0  0  0  0  0  0  0  0  0  0  0
    5.1255    1.0648    0.3518 C   0  0  0  0  0  0  0  0  0  0  0  0
    6.3493    0.5231    0.7569 C   0  0  0  0  0  0  0  0  0  0  0  0
    6.7271   -0.7558    0.3351 C   0  0  0  0  0  0  0  0  0  0  0  0
    7.9492   -1.2828    0.7464 O   0  0  0  0  0  0  0  0  0  0  0  0
    5.8726   -1.4952   -0.4940 C   0  0  0  0  0  0  0  0  0  0  0  0
    4.6483   -0.9558   -0.9005 C   0  0  0  0  0  0  0  0  0  0  0  0
   -0.5216    0.3407    0.6363 N   0  0  0  0  0  0  0  0  0  0  0  0
   -1.8631    0.2112    0.0494 C   0  0  0  0  0  0  0  0  0  0  0  0
   -2.7516   -0.6641    0.9473 C   0  0  0  0  0  0  0  0  0  0  0  0
   -2.2354   -1.9695    1.0190 O   0  0  0  0  0  0  0  0  0  0  0  0
   -4.1596   -0.7082    0.3988 C   0  0  0  0  0  0  0  0  0  0  0  0
   -5.1669    0.0888    0.9703 C   0  0  0  0  0  0  0  0  0  0  0  0
   -6.4630    0.0744    0.4459 C   0  0  0  0  0  0  0  0  0  0  0  0
   -6.7667   -0.7258   -0.6597 C   0  0  0  0  0  0  0  0  0  0  0  0
   -8.0625   -0.7299   -1.1709 O   0  0  0  0  0  0  0  0  0  0  0  0
   -5.7655   -1.5125   -1.2440 C   0  0  0  0  0  0  0  0  0  0  0  0
   -4.4686   -1.5005   -0.7221 C   0  0  0  0  0  0  0  0  0  0  0  0
    0.5306    2.9310    0.7064 H   0  0  0  0  0  0  0  0  0  0  0  0
    0.9523    2.9651   -1.0504 H   0  0  0  0  0  0  0  0  0  0  0  0
   -0.7501    2.7935   -0.5559 H   0  0  0  0  0  0  0  0  0  0  0  0
    0.2811    0.5968   -1.3199 H   0  0  0  0  0  0  0  0  0  0  0  0
    1.8708   -0.5490    0.2991 H   0  0  0  0  0  0  0  0  0  0  0  0
    2.1202    1.0282    1.1191 H   0  0  0  0  0  0  0  0  0  0  0  0
    3.0294    2.0032   -1.0022 H   0  0  0  0  0  0  0  0  0  0  0  0
    2.6456    0.4957   -1.8907 H   0  0  0  0  0  0  0  0  0  0  0  0
    4.8427    2.0524    0.6947 H   0  0  0  0  0  0  0  0  0  0  0  0
    7.0030    1.0962    1.4021 H   0  0  0  0  0  0  0  0  0  0  0  0
    8.2512   -2.2064    0.4588 H   0  0  0  0  0  0  0  0  0  0  0  0
    6.1542   -2.4882   -0.8205 H   0  0  0  0  0  0  0  0  0  0  0  0
    3.9938   -1.5427   -1.5331 H   0  0  0  0  0  0  0  0  0  0  0  0
   -0.5861    0.8977    1.5215 H   0  0  0  0  0  0  0  0  0  0  0  0
   -2.3326    1.2138   -0.0560 H   0  0  0  0  0  0  0  0  0  0  0  0
   -1.8002   -0.2601   -0.9570 H   0  0  0  0  0  0  0  0  0  0  0  0
   -2.7759   -0.2200    1.9711 H   0  0  0  0  0  0  0  0  0  0  0  0
   -1.4923   -1.9535    1.6774 H   0  0  0  0  0  0  0  0  0  0  0  0
   -4.9500    0.7230    1.8208 H   0  0  0  0  0  0  0  0  0  0  0  0
   -7.2316    0.6888    0.8974 H   0  0  0  0  0  0  0  0  0  0  0  0
   -8.3140   -1.2980   -1.9714 H   0  0  0  0  0  0  0  0  0  0  0  0
   -5.9901   -2.1303   -2.1041 H   0  0  0  0  0  0  0  0  0  0  0  0
   -3.7049   -2.1068   -1.1933 H   0  0  0  0  0  0  0  0  0  0  0  0
  1  2  1  0
  2  3  1  0
  3  4  1  0
  4  5  1  0
  5  6  2  0
  6  7  1  0
  7  8  2  0
  8  9  1  0
  8 10  1  0
 10 11  2  0
  2 12  1  0
 12 13  1  0
 13 14  1  0
 14 15  1  0
 14 16  1  0
 16 17  2  0
 17 18  1  0
 18 19  2  0
 19 20  1  0
 19 21  1  0
 21 22  2  0
 11  5  1  0
 22 16  1  0
  1 23  1  0
  1 24  1  0
  1 25  1  0
  2 26  1  0
  3 27  1  0
  3 28  1  0
  4 29  1  0
  4 30  1  0
  6 31  1  0
  7 32  1  0
  9 33  1  0
 10 34  1  0
 11 35  1  0
 12 36  1  0
 13 37  1  0
 13 38  1  0
 14 39  1  0
 15 40  1  0
 17 41  1  0
 18 42  1  0
 20 43  1  0
 21 44  1  0
 22 45  1  0
M  END
$$$$
