
     RDKit          3D

 59 60  0  0  0  0  0  0  0  0999 V2000
   -1.3575   -1.5560   -0.7116 C   0  0  2  0  0  0  0  0  0  0  0  0
   -0.5527   -2.7292   -0.1680 C   0  0  0  0  0  0  0  0  0  0  0  0
    0.7022   -2.6217   -0.9753 C   0  0  0  0  0  0  0  0  0  0  0  0
    1.5057   -3.5345   -1.0882 O   0  0  0  0  0  0  0  0  0  0  0  0
    0.8335   -1.3033   -1.6836 C   0  0  2  0  0  0  0  0  0  0  0  0
    2.2250   -0.6397   -1.5432 C   0  0  0  0  0  0  0  0  0  0  0  0
    2.8321   -0.6821   -0.1232 C   0  0  0  0  0  0  0  0  0  0  0  0
    4.1072    0.1683   -0.0013 C   0  0  0  0  0  0  0  0  0  0  0  0
    5.3057   -0.4516   -0.7407 C   0  0  0  0  0  0  0  0  0  0  0  0
    6.5865    0.3858   -0.5931 C   0  0  0  0  0  0  0  0  0  0  0  0
    7.2154    0.2653    0.8013 C   0  0  0  0  0  0  0  0  0  0  0  0
    8.5185    0.9985    0.8497 C   0  0  0  0  0  0  0  0  0  0  0  0
    8.5380    2.3574    1.1475 O   0  0  0  0  0  0  0  0  0  0  0  0
    9.5927    0.3964    0.5824 O   0  0  0  0  0  0  0  0  0  0  0  0
   -0.3076   -0.5059   -1.0405 C   0  0  1  0  0  0  0  0  0  0  0  0
   -0.9796    0.5831   -1.8653 C   0  0  0  0  0  0  0  0  0  0  0  0
   -2.1466    1.1411   -1.0272 C   0  0  0  0  0  0  0  0  0  0  0  0
   -3.0703    0.0088   -0.4392 C   0  0  1  0  0  0  0  0  0  0  0  0
   -3.8492   -0.5581   -1.4730 O   0  0  0  0  0  0  0  0  0  0  0  0
   -2.3018   -1.0225    0.1954 O   0  0  0  0  0  0  0  0  0  0  0  0
   -4.0139    0.6180    0.6372 C   0  0  0  0  0  0  0  0  0  0  0  0
   -3.2499    1.0644    1.7051 F   0  0  0  0  0  0  0  0  0  0  0  0
   -4.6851    1.7019    0.0937 F   0  0  0  0  0  0  0  0  0  0  0  0
   -5.0459   -0.4185    1.1423 C   0  0  0  0  0  0  0  0  0  0  0  0
   -5.7890   -0.0026    2.4287 C   0  0  0  0  0  0  0  0  0  0  0  0
   -6.6669    1.2546    2.3050 C   0  0  0  0  0  0  0  0  0  0  0  0
   -7.7901    1.1020    1.2797 C   0  0  0  0  0  0  0  0  0  0  0  0
   -1.8572   -1.9198   -1.6432 H   0  0  0  0  0  0  0  0  0  0  0  0
   -1.0746   -3.6925   -0.3552 H   0  0  0  0  0  0  0  0  0  0  0  0
   -0.3236   -2.6043    0.9123 H   0  0  0  0  0  0  0  0  0  0  0  0
    0.6175   -1.4615   -2.7638 H   0  0  0  0  0  0  0  0  0  0  0  0
    2.9132   -1.1636   -2.2396 H   0  0  0  0  0  0  0  0  0  0  0  0
    2.1494    0.4149   -1.8866 H   0  0  0  0  0  0  0  0  0  0  0  0
    3.0627   -1.7303    0.1641 H   0  0  0  0  0  0  0  0  0  0  0  0
    2.1034   -0.2916    0.6148 H   0  0  0  0  0  0  0  0  0  0  0  0
    4.3484    0.2534    1.0789 H   0  0  0  0  0  0  0  0  0  0  0  0
    3.9132    1.1943   -0.3840 H   0  0  0  0  0  0  0  0  0  0  0  0
    5.4871   -1.4861   -0.3754 H   0  0  0  0  0  0  0  0  0  0  0  0
    5.0721   -0.5128   -1.8243 H   0  0  0  0  0  0  0  0  0  0  0  0
    7.3208    0.0243   -1.3469 H   0  0  0  0  0  0  0  0  0  0  0  0
    6.3689    1.4527   -0.8211 H   0  0  0  0  0  0  0  0  0  0  0  0
    7.3857   -0.8048    1.0507 H   0  0  0  0  0  0  0  0  0  0  0  0
    6.5405    0.6981    1.5686 H   0  0  0  0  0  0  0  0  0  0  0  0
    9.4103    2.8721    1.1684 H   0  0  0  0  0  0  0  0  0  0  0  0
    0.0404   -0.0501   -0.0869 H   0  0  0  0  0  0  0  0  0  0  0  0
   -1.3612    0.1728   -2.8262 H   0  0  0  0  0  0  0  0  0  0  0  0
   -0.2542    1.3944   -2.0892 H   0  0  0  0  0  0  0  0  0  0  0  0
   -2.7387    1.8409   -1.6559 H   0  0  0  0  0  0  0  0  0  0  0  0
   -1.7146    1.7388   -0.1943 H   0  0  0  0  0  0  0  0  0  0  0  0
   -4.3779    0.1675   -1.8968 H   0  0  0  0  0  0  0  0  0  0  0  0
   -4.5219   -1.3720    1.3694 H   0  0  0  0  0  0  0  0  0  0  0  0
   -5.7788   -0.6460    0.3397 H   0  0  0  0  0  0  0  0  0  0  0  0
   -5.0494    0.1590    3.2424 H   0  0  0  0  0  0  0  0  0  0  0  0
   -6.4314   -0.8515    2.7503 H   0  0  0  0  0  0  0  0  0  0  0  0
   -7.1298    1.4482    3.2969 H   0  0  0  0  0  0  0  0  0  0  0  0
   -6.0491    2.1436    2.0625 H   0  0  0  0  0  0  0  0  0  0  0  0
   -8.3759    0.1797    1.4791 H   0  0  0  0  0  0  0  0  0  0  0  0
   -8.4721    1.9757    1.3471 H   0  0  0  0  0  0  0  0  0  0  0  0
   -7.3798    1.0656    0.2494 H   0  0  0  0  0  0  0  0  0  0  0  0
  1  2  1  0
  2  3  1  0
  3  4  2  0
  3  5  1  0
  5  6  1  0
  6  7  1  0
  7  8  1  0
  8  9  1  0
  9 10  1  0
 10 11  1  0
 11 12  1  0
 12 13  1  0
 12 14  2  0
  5 15  1  0
 15 16  1  0
 16 17  1  0
 17 18  1  0
 18 19  1  6
 18 20  1  0
 18 21  1  0
 21 22  1  0
 21 23  1  0
 21 24  1  0
 24 25  1  0
 25 26  1  0
 26 27  1  0
 15  1  1  0
 20  1  1  0
  1 28  1  6
  2 29  1  0
  2 30  1  0
  5 31  1  6
  6 32  1  0
  6 33  1  0
  7 34  1  0
  7 35  1  0
  8 36  1  0
  8 37  1  0
  9 38  1  0
  9 39  1  0
 10 40  1  0
 10 41  1  0
 11 42  1  0
 11 43  1  0
 13 44  1  0
 15 45  1  1
 16 46  1  0
 16 47  1  0
 17 48  1  0
 17 49  1  0
 19 50  1  0
 24 51  1  0
 24 52  1  0
 25 53  1  0
 25 54  1  0
 26 55  1  0
 26 56  1  0
 27 57  1  0
 27 58  1  0
 27 59  1  0
M  END
$$$$
