
     RDKit          3D

136138  0  0  0  0  0  0  0  0999 V2000
    1.1372   -1.4872    0.2783 C   0  0  1  0  0  0  0  0  0  0  0  0
    1.6349   -0.4670   -0.5942 O   0  0  0  0  0  0  0  0  0  0  0  0
    2.0893   -0.7155   -1.8919 C   0  0  0  0  0  0  0  0  0  0  0  0
    1.2510   -0.8497   -2.8214 O   0  0  0  0  0  0  0  0  0  0  0  0
    3.5460   -0.7905   -2.1721 C   0  0  0  0  0  0  0  0  0  0  0  0
    4.0786   -0.5056   -3.4422 O   0  0  0  0  0  0  0  0  0  0  0  0
    3.3463    0.0364   -4.5352 C   0  0  0  0  0  0  0  0  0  0  0  0
    4.3814   -1.1760   -1.1939 C   0  0  0  0  0  0  0  0  0  0  0  0
    5.8307   -1.3781   -1.4001 C   0  0  0  0  0  0  0  0  0  0  0  0
    6.4154   -2.6878   -0.9431 C   0  0  0  0  0  0  0  0  0  0  0  0
    6.5879   -0.3928   -1.9260 C   0  0  0  0  0  0  0  0  0  0  0  0
    8.0579   -0.5255   -2.2616 C   0  0  1  0  0  0  0  0  0  0  0  0
    8.2273   -0.3775   -3.7797 C   0  0  0  0  0  0  0  0  0  0  0  0
    8.9446    0.4960   -1.4949 C   0  0  1  0  0  0  0  0  0  0  0  0
    8.5426    1.8150   -1.7593 O   0  0  0  0  0  0  0  0  0  0  0  0
    9.0371    0.2177    0.0468 C   0  0  1  0  0  0  0  0  0  0  0  0
   10.4519    0.5642    0.5997 C   0  0  0  0  0  0  0  0  0  0  0  0
   11.4519   -0.5796    0.4076 C   0  0  0  0  0  0  0  0  0  0  0  0
    7.8610    0.7568    0.9487 C   0  0  1  0  0  0  0  0  0  0  0  0
    8.0446    0.2927    2.2654 O   0  0  0  0  0  0  0  0  0  0  0  0
    7.5737    2.2969    0.9844 C   0  0  2  0  0  0  0  0  0  0  0  0
    8.7988    3.1422    1.3667 C   0  0  0  0  0  0  0  0  0  0  0  0
    6.4099    2.6308    1.9557 C   0  0  0  0  0  0  0  0  0  0  0  0
    5.0661    2.1588    1.4479 C   0  0  0  0  0  0  0  0  0  0  0  0
    4.4146    2.9255    0.3237 C   0  0  0  0  0  0  0  0  0  0  0  0
    4.4788    1.0811    2.0031 C   0  0  0  0  0  0  0  0  0  0  0  0
    3.1166    0.6330    1.6501 C   0  0  0  0  0  0  0  0  0  0  0  0
    2.6338   -0.5384    2.0753 C   0  0  0  0  0  0  0  0  0  0  0  0
    1.2236   -0.9779    1.7449 C   0  0  2  0  0  0  0  0  0  0  0  0
    0.8580   -2.0251    2.6272 O   0  0  0  0  0  0  0  0  0  0  0  0
    0.2513   -1.5062    3.7913 C   0  0  0  0  0  0  0  0  0  0  0  0
   -0.2949   -1.9394   -0.1715 C   0  0  1  0  0  0  0  0  0  0  0  0
   -0.7062   -3.2668    0.4981 C   0  0  0  0  0  0  0  0  0  0  0  0
   -1.3804   -0.8317    0.0120 C   0  0  1  0  0  0  0  0  0  0  0  0
   -0.9464    0.3547   -0.6080 O   0  0  0  0  0  0  0  0  0  0  0  0
   -2.7995   -1.2130   -0.5275 C   0  0  2  0  0  0  0  0  0  0  0  0
   -2.7728   -1.5057   -2.0452 C   0  0  0  0  0  0  0  0  0  0  0  0
   -3.8786   -0.1281   -0.1650 C   0  0  1  0  0  0  0  0  0  0  0  0
   -3.6680    0.9806   -1.0083 O   0  0  0  0  0  0  0  0  0  0  0  0
   -5.3175   -0.6687   -0.4430 C   0  0  0  0  0  0  0  0  0  0  0  0
   -6.3670    0.0498    0.4069 C   0  0  1  0  0  0  0  0  0  0  0  0
   -7.6274   -0.5690    0.1815 O   0  0  0  0  0  0  0  0  0  0  0  0
   -8.6119    0.3491   -0.2607 C   0  0  1  0  0  0  0  0  0  0  0  0
   -8.4494    0.6100   -1.7753 C   0  0  0  0  0  0  0  0  0  0  0  0
   -9.7967    0.9352   -2.4599 C   0  0  1  0  0  0  0  0  0  0  0  0
  -10.3518   -0.2054   -3.0707 O   0  0  0  0  0  0  0  0  0  0  0  0
  -10.7998    1.5739   -1.4785 C   0  0  2  0  0  0  0  0  0  0  0  0
  -10.3638    2.9057   -1.1931 O   0  0  0  0  0  0  0  0  0  0  0  0
  -11.1837    3.8783   -0.6106 C   0  0  0  0  0  0  0  0  0  0  0  0
  -10.6512    5.1705   -0.3340 N   0  0  0  0  0  0  0  0  0  0  0  0
  -12.3865    3.6249   -0.3300 O   0  0  0  0  0  0  0  0  0  0  0  0
  -10.9075    0.7508   -0.1508 C   0  0  1  0  0  0  0  0  0  0  0  0
  -12.2587    0.0399   -0.0586 C   0  0  0  0  0  0  0  0  0  0  0  0
   -9.8817   -0.2232   -0.0168 O   0  0  0  0  0  0  0  0  0  0  0  0
   -6.0193   -0.0339    1.9167 C   0  0  2  0  0  0  0  0  0  0  0  0
   -6.4445    1.2659    2.6231 C   0  0  0  0  0  0  0  0  0  0  0  0
   -4.5039   -0.3180    2.1590 C   0  0  2  0  0  0  0  0  0  0  0  0
   -3.6876    0.3146    1.1855 O   0  0  0  0  0  0  0  0  0  0  0  0
   -4.0835   -1.7635    2.3893 C   0  0  0  0  0  0  0  0  0  0  0  0
   -4.8410   -2.8509    2.1632 C   0  0  0  0  0  0  0  0  0  0  0  0
   -4.2923   -4.2231    2.4044 C   0  0  0  0  0  0  0  0  0  0  0  0
    1.8164   -2.3659    0.1945 H   0  0  0  0  0  0  0  0  0  0  0  0
    2.6382   -0.7190   -4.9342 H   0  0  0  0  0  0  0  0  0  0  0  0
    2.8030    0.9519   -4.2184 H   0  0  0  0  0  0  0  0  0  0  0  0
    4.0557    0.3079   -5.3435 H   0  0  0  0  0  0  0  0  0  0  0  0
    3.9833   -1.4887   -0.2392 H   0  0  0  0  0  0  0  0  0  0  0  0
    7.1889   -2.5125   -0.1672 H   0  0  0  0  0  0  0  0  0  0  0  0
    6.8571   -3.2293   -1.8058 H   0  0  0  0  0  0  0  0  0  0  0  0
    5.6335   -3.3416   -0.5010 H   0  0  0  0  0  0  0  0  0  0  0  0
    6.1184    0.5557   -2.1636 H   0  0  0  0  0  0  0  0  0  0  0  0
    8.4401   -1.5377   -2.0162 H   0  0  0  0  0  0  0  0  0  0  0  0
    7.8600    0.6115   -4.1283 H   0  0  0  0  0  0  0  0  0  0  0  0
    7.6520   -1.1709   -4.3041 H   0  0  0  0  0  0  0  0  0  0  0  0
    9.2960   -0.4851   -4.0634 H   0  0  0  0  0  0  0  0  0  0  0  0
    9.9737    0.3513   -1.9033 H   0  0  0  0  0  0  0  0  0  0  0  0
    9.0139    2.1164   -2.5795 H   0  0  0  0  0  0  0  0  0  0  0  0
    8.9514   -0.8863    0.1543 H   0  0  0  0  0  0  0  0  0  0  0  0
   10.4154    0.7813    1.6871 H   0  0  0  0  0  0  0  0  0  0  0  0
   10.8628    1.4595    0.0887 H   0  0  0  0  0  0  0  0  0  0  0  0
   11.5508   -0.8458   -0.6651 H   0  0  0  0  0  0  0  0  0  0  0  0
   12.4486   -0.2684    0.7857 H   0  0  0  0  0  0  0  0  0  0  0  0
   11.1258   -1.4758    0.9771 H   0  0  0  0  0  0  0  0  0  0  0  0
    6.9278    0.2973    0.5602 H   0  0  0  0  0  0  0  0  0  0  0  0
    7.8113   -0.6727    2.2740 H   0  0  0  0  0  0  0  0  0  0  0  0
    7.2428    2.6352   -0.0159 H   0  0  0  0  0  0  0  0  0  0  0  0
    9.2659    2.7678    2.3015 H   0  0  0  0  0  0  0  0  0  0  0  0
    9.5340    3.1551    0.5410 H   0  0  0  0  0  0  0  0  0  0  0  0
    8.5104    4.2032    1.5250 H   0  0  0  0  0  0  0  0  0  0  0  0
    6.6215    2.2289    2.9710 H   0  0  0  0  0  0  0  0  0  0  0  0
    6.3341    3.7325    2.0875 H   0  0  0  0  0  0  0  0  0  0  0  0
    5.0687    3.7490   -0.0321 H   0  0  0  0  0  0  0  0  0  0  0  0
    3.4624    3.3776    0.6719 H   0  0  0  0  0  0  0  0  0  0  0  0
    4.2181    2.2462   -0.5333 H   0  0  0  0  0  0  0  0  0  0  0  0
    5.0122    0.5261    2.7669 H   0  0  0  0  0  0  0  0  0  0  0  0
    2.4823    1.2706    1.0486 H   0  0  0  0  0  0  0  0  0  0  0  0
    3.2485   -1.1790    2.6978 H   0  0  0  0  0  0  0  0  0  0  0  0
    0.5591   -0.0865    1.8425 H   0  0  0  0  0  0  0  0  0  0  0  0
    0.9164   -0.7780    4.3066 H   0  0  0  0  0  0  0  0  0  0  0  0
    0.0579   -2.3434    4.4927 H   0  0  0  0  0  0  0  0  0  0  0  0
   -0.7270   -1.0354    3.5509 H   0  0  0  0  0  0  0  0  0  0  0  0
   -0.2098   -2.1669   -1.2518 H   0  0  0  0  0  0  0  0  0  0  0  0
   -1.1168   -3.0966    1.5145 H   0  0  0  0  0  0  0  0  0  0  0  0
   -1.4821   -3.7793   -0.1080 H   0  0  0  0  0  0  0  0  0  0  0  0
    0.1563   -3.9627    0.5686 H   0  0  0  0  0  0  0  0  0  0  0  0
   -1.4787   -0.6780    1.1103 H   0  0  0  0  0  0  0  0  0  0  0  0
   -1.1333    1.1037    0.0162 H   0  0  0  0  0  0  0  0  0  0  0  0
   -3.1029   -2.1565   -0.0336 H   0  0  0  0  0  0  0  0  0  0  0  0
   -2.1814   -2.4181   -2.2607 H   0  0  0  0  0  0  0  0  0  0  0  0
   -3.7918   -1.7047   -2.4327 H   0  0  0  0  0  0  0  0  0  0  0  0
   -2.3395   -0.6533   -2.6097 H   0  0  0  0  0  0  0  0  0  0  0  0
   -4.1880    1.7431   -0.6432 H   0  0  0  0  0  0  0  0  0  0  0  0
   -5.5736   -0.5217   -1.5149 H   0  0  0  0  0  0  0  0  0  0  0  0
   -5.3800   -1.7602   -0.2592 H   0  0  0  0  0  0  0  0  0  0  0  0
   -6.3347    1.1177    0.0799 H   0  0  0  0  0  0  0  0  0  0  0  0
   -8.5295    1.3133    0.3013 H   0  0  0  0  0  0  0  0  0  0  0  0
   -7.7506    1.4634   -1.9162 H   0  0  0  0  0  0  0  0  0  0  0  0
   -7.9909   -0.2738   -2.2712 H   0  0  0  0  0  0  0  0  0  0  0  0
   -9.5985    1.6670   -3.2738 H   0  0  0  0  0  0  0  0  0  0  0  0
  -10.4133   -0.9238   -2.3900 H   0  0  0  0  0  0  0  0  0  0  0  0
  -11.7841    1.6349   -1.9973 H   0  0  0  0  0  0  0  0  0  0  0  0
  -11.2491    5.9085    0.0998 H   0  0  0  0  0  0  0  0  0  0  0  0
   -9.6560    5.3872   -0.5625 H   0  0  0  0  0  0  0  0  0  0  0  0
  -10.8586    1.4386    0.7244 H   0  0  0  0  0  0  0  0  0  0  0  0
  -12.3861   -0.6673   -0.9052 H   0  0  0  0  0  0  0  0  0  0  0  0
  -12.3208   -0.5296    0.8930 H   0  0  0  0  0  0  0  0  0  0  0  0
  -13.0862    0.7809   -0.0766 H   0  0  0  0  0  0  0  0  0  0  0  0
   -6.6251   -0.8306    2.3970 H   0  0  0  0  0  0  0  0  0  0  0  0
   -7.5260    1.4581    2.4637 H   0  0  0  0  0  0  0  0  0  0  0  0
   -6.2783    1.1818    3.7185 H   0  0  0  0  0  0  0  0  0  0  0  0
   -5.8615    2.1304    2.2386 H   0  0  0  0  0  0  0  0  0  0  0  0
   -4.2379    0.1629    3.1253 H   0  0  0  0  0  0  0  0  0  0  0  0
   -3.0681   -1.9135    2.7471 H   0  0  0  0  0  0  0  0  0  0  0  0
   -5.8532   -2.7751    1.7864 H   0  0  0  0  0  0  0  0  0  0  0  0
   -3.9999   -4.3329    3.4700 H   0  0  0  0  0  0  0  0  0  0  0  0
   -5.0639   -4.9839    2.1635 H   0  0  0  0  0  0  0  0  0  0  0  0
   -3.4065   -4.3956    1.7578 H   0  0  0  0  0  0  0  0  0  0  0  0
  1  2  1  0
  2  3  1  0
  3  4  2  0
  3  5  1  0
  5  6  1  0
  6  7  1  0
  5  8  2  0
  8  9  1  0
  9 10  1  0
  9 11  2  0
 11 12  1  0
 12 13  1  0
 12 14  1  0
 14 15  1  0
 14 16  1  0
 16 17  1  0
 17 18  1  0
 16 19  1  0
 19 20  1  0
 19 21  1  0
 21 22  1  0
 21 23  1  0
 23 24  1  0
 24 25  1  0
 24 26  2  0
 26 27  1  0
 27 28  2  0
 28 29  1  0
 29 30  1  0
 30 31  1  0
  1 32  1  0
 32 33  1  0
 32 34  1  0
 34 35  1  0
 34 36  1  0
 36 37  1  0
 36 38  1  0
 38 39  1  6
 38 40  1  0
 40 41  1  0
 41 42  1  0
 42 43  1  0
 43 44  1  0
 44 45  1  0
 45 46  1  0
 45 47  1  0
 47 48  1  0
 48 49  1  0
 49 50  1  0
 49 51  2  0
 47 52  1  0
 52 53  1  0
 52 54  1  0
 41 55  1  0
 55 56  1  0
 55 57  1  0
 57 58  1  0
 57 59  1  0
 59 60  2  0
 60 61  1  0
 29  1  1  0
 58 38  1  0
 54 43  1  0
  1 62  1  1
  7 63  1  0
  7 64  1  0
  7 65  1  0
  8 66  1  0
 10 67  1  0
 10 68  1  0
 10 69  1  0
 11 70  1  0
 12 71  1  1
 13 72  1  0
 13 73  1  0
 13 74  1  0
 14 75  1  6
 15 76  1  0
 16 77  1  6
 17 78  1  0
 17 79  1  0
 18 80  1  0
 18 81  1  0
 18 82  1  0
 19 83  1  6
 20 84  1  0
 21 85  1  6
 22 86  1  0
 22 87  1  0
 22 88  1  0
 23 89  1  0
 23 90  1  0
 25 91  1  0
 25 92  1  0
 25 93  1  0
 26 94  1  0
 27 95  1  0
 28 96  1  0
 29 97  1  6
 31 98  1  0
 31 99  1  0
 31100  1  0
 32101  1  6
 33102  1  0
 33103  1  0
 33104  1  0
 34105  1  1
 35106  1  0
 36107  1  1
 37108  1  0
 37109  1  0
 37110  1  0
 39111  1  0
 40112  1  0
 40113  1  0
 41114  1  6
 43115  1  1
 44116  1  0
 44117  1  0
 45118  1  6
 46119  1  0
 47120  1  6
 50121  1  0
 50122  1  0
 52123  1  1
 53124  1  0
 53125  1  0
 53126  1  0
 55127  1  1
 56128  1  0
 56129  1  0
 56130  1  0
 57131  1  1
 59132  1  0
 60133  1  0
 61134  1  0
 61135  1  0
 61136  1  0
M  END
$$$$
