
     RDKit          3D

 44 47  0  0  0  0  0  0  0  0999 V2000
    7.0685   -1.3353   -1.3493 N   0  0  0  0  0  0  0  0  0  0  0  0
    5.7119   -0.9899   -1.6543 C   0  0  0  0  0  0  0  0  0  0  0  0
    5.3144   -0.9918   -2.8923 N   0  0  0  0  0  4  0  0  0  0  0  0
    4.7738   -0.6417   -0.5579 C   0  0  0  0  0  0  0  0  0  0  0  0
    3.8031    0.3741   -0.7362 C   0  0  0  0  0  0  0  0  0  0  0  0
    2.9561    0.6602    0.3308 C   0  0  0  0  0  0  0  0  0  0  0  0
    3.0331   -0.0000    1.5188 C   0  0  0  0  0  0  0  0  0  0  0  0
    3.9692   -1.0045    1.7391 C   0  0  0  0  0  0  0  0  0  0  0  0
    4.8487   -1.3238    0.6875 C   0  0  0  0  0  0  0  0  0  0  0  0
    2.0999    0.4568    2.3732 N   0  0  0  0  0  0  0  0  0  0  0  0
    1.4773    1.4219    1.6452 C   0  0  0  0  0  0  0  0  0  0  0  0
    0.3012    2.1915    2.1533 C   0  0  0  0  0  0  0  0  0  0  0  0
   -0.9631    1.5081    1.7435 C   0  0  0  0  0  0  0  0  0  0  0  0
   -1.5899    0.5848    2.5206 N   0  0  0  0  0  0  0  0  0  0  0  0
   -2.6185    0.1972    1.7451 C   0  0  0  0  0  0  0  0  0  0  0  0
   -2.5932    0.8568    0.5547 C   0  0  0  0  0  0  0  0  0  0  0  0
   -1.5457    1.6891    0.5325 N   0  0  0  0  0  0  0  0  0  0  0  0
   -3.5370    0.6289   -0.4430 C   0  0  0  0  0  0  0  0  0  0  0  0
   -4.5559   -0.3216   -0.1879 C   0  0  0  0  0  0  0  0  0  0  0  0
   -4.5706   -1.0091    1.0574 C   0  0  0  0  0  0  0  0  0  0  0  0
   -3.5940   -0.7495    2.0372 C   0  0  0  0  0  0  0  0  0  0  0  0
   -5.5907   -0.6170   -1.2152 C   0  0  0  0  0  0  0  0  0  0  0  0
   -6.1506   -1.9379   -1.3094 N   0  0  0  0  0  4  0  0  0  0  0  0
   -6.0609    0.3343   -1.9695 N   0  0  0  0  0  4  0  0  0  0  0  0
    1.9716    1.5646    0.3906 N   0  0  0  0  0  0  0  0  0  0  0  0
    7.7281   -1.6270   -2.1045 H   0  0  0  0  0  0  0  0  0  0  0  0
    7.4399   -1.2538   -0.3771 H   0  0  0  0  0  0  0  0  0  0  0  0
    5.9750   -1.2333   -3.6645 H   0  0  0  0  0  0  0  0  0  0  0  0
    4.3254   -0.7808   -3.1529 H   0  0  0  0  0  0  0  0  0  0  0  0
    3.7227    0.9328   -1.6600 H   0  0  0  0  0  0  0  0  0  0  0  0
    4.0177   -1.5267    2.6859 H   0  0  0  0  0  0  0  0  0  0  0  0
    5.5724   -2.1146    0.8383 H   0  0  0  0  0  0  0  0  0  0  0  0
    0.3483    2.2625    3.2610 H   0  0  0  0  0  0  0  0  0  0  0  0
    0.3210    3.2226    1.7403 H   0  0  0  0  0  0  0  0  0  0  0  0
   -1.2403    2.3196   -0.2423 H   0  0  0  0  0  0  0  0  0  0  0  0
   -3.4666    1.1538   -1.3870 H   0  0  0  0  0  0  0  0  0  0  0  0
   -5.3425   -1.7360    1.2752 H   0  0  0  0  0  0  0  0  0  0  0  0
   -3.6023   -1.2705    2.9859 H   0  0  0  0  0  0  0  0  0  0  0  0
   -6.4609   -2.1328   -2.2888 H   0  0  0  0  0  0  0  0  0  0  0  0
   -5.4324   -2.6523   -1.0508 H   0  0  0  0  0  0  0  0  0  0  0  0
   -6.9696   -2.0084   -0.6641 H   0  0  0  0  0  0  0  0  0  0  0  0
   -6.8143    0.1407   -2.6666 H   0  0  0  0  0  0  0  0  0  0  0  0
   -5.7306    1.3210   -1.8837 H   0  0  0  0  0  0  0  0  0  0  0  0
    1.6503    2.2172   -0.3589 H   0  0  0  0  0  0  0  0  0  0  0  0
  1  2  1  0
  2  3  2  3
  2  4  1  0
  4  5  2  0
  5  6  1  0
  6  7  2  0
  7  8  1  0
  8  9  2  0
  7 10  1  0
 10 11  2  0
 11 12  1  0
 12 13  1  0
 13 14  2  0
 14 15  1  0
 15 16  2  0
 16 17  1  0
 16 18  1  0
 18 19  2  0
 19 20  1  0
 20 21  2  0
 19 22  1  0
 22 23  1  0
 22 24  2  3
 11 25  1  0
  9  4  1  0
 17 13  1  0
 25  6  1  0
 21 15  1  0
  1 26  1  0
  1 27  1  0
  3 28  1  0
  3 29  1  0
  5 30  1  0
  8 31  1  0
  9 32  1  0
 12 33  1  0
 12 34  1  0
 17 35  1  0
 18 36  1  0
 20 37  1  0
 21 38  1  0
 23 39  1  0
 23 40  1  0
 23 41  1  0
 24 42  1  0
 24 43  1  0
 25 44  1  0
M  CHG  3   3   1  23   1  24   1
M  END
$$$$
