
     RDKit          3D

 44 45  0  0  0  0  0  0  0  0999 V2000
    5.7994    0.7314   -0.1118 C   0  0  1  0  0  0  0  0  0  0  0  0
    6.2991    1.6438    0.9207 N   0  0  0  0  0  0  0  0  0  0  0  0
    4.2583    0.6869   -0.1068 C   0  0  0  0  0  0  0  0  0  0  0  0
    3.6916    0.0003    1.1432 C   0  0  0  0  0  0  0  0  0  0  0  0
    2.2029   -0.1396    1.0306 C   0  0  0  0  0  0  0  0  0  0  0  0
    1.4577    0.6971    1.6090 O   0  0  0  0  0  0  0  0  0  0  0  0
    1.6395   -1.2194    0.2690 N   0  0  0  0  0  0  0  0  0  0  0  0
    0.2528   -1.3076   -0.1004 C   0  0  0  0  0  0  0  0  0  0  0  0
   -0.4948   -0.1622   -0.4244 C   0  0  0  0  0  0  0  0  0  0  0  0
   -1.8355   -0.2761   -0.8038 C   0  0  0  0  0  0  0  0  0  0  0  0
   -2.4488   -1.5412   -0.8760 C   0  0  0  0  0  0  0  0  0  0  0  0
   -3.7937   -1.7125   -1.2423 O   0  0  0  0  0  0  0  0  0  0  0  0
   -4.7268   -0.6564   -1.4742 C   0  0  0  0  0  0  0  0  0  0  0  0
   -5.0727    0.0452   -0.1875 C   0  0  0  0  0  0  0  0  0  0  0  0
   -5.5079   -0.6961    0.9238 C   0  0  0  0  0  0  0  0  0  0  0  0
   -5.8390   -0.0476    2.1176 C   0  0  0  0  0  0  0  0  0  0  0  0
   -5.7464    1.3439    2.2078 C   0  0  0  0  0  0  0  0  0  0  0  0
   -5.3262    2.0895    1.1030 C   0  0  0  0  0  0  0  0  0  0  0  0
   -4.9944    1.4449   -0.0929 C   0  0  0  0  0  0  0  0  0  0  0  0
   -1.6938   -2.6811   -0.5794 C   0  0  0  0  0  0  0  0  0  0  0  0
   -0.3530   -2.5677   -0.2018 C   0  0  0  0  0  0  0  0  0  0  0  0
    6.2811    1.1802   -1.4640 C   0  0  0  0  0  0  0  0  0  0  0  0
    6.8707    0.2627   -2.3280 O   0  0  0  0  0  0  0  0  0  0  0  0
    6.1295    2.3779   -1.8280 O   0  0  0  0  0  0  0  0  0  0  0  0
    6.1968   -0.2922    0.0768 H   0  0  0  0  0  0  0  0  0  0  0  0
    7.3384    1.7193    0.8224 H   0  0  0  0  0  0  0  0  0  0  0  0
    6.1450    1.2042    1.8563 H   0  0  0  0  0  0  0  0  0  0  0  0
    3.8532    1.7213   -0.1765 H   0  0  0  0  0  0  0  0  0  0  0  0
    3.9140    0.1236   -1.0038 H   0  0  0  0  0  0  0  0  0  0  0  0
    3.9312    0.5959    2.0497 H   0  0  0  0  0  0  0  0  0  0  0  0
    4.1449   -1.0074    1.2628 H   0  0  0  0  0  0  0  0  0  0  0  0
    2.2619   -2.0256    0.0336 H   0  0  0  0  0  0  0  0  0  0  0  0
   -0.0385    0.8186   -0.4123 H   0  0  0  0  0  0  0  0  0  0  0  0
   -2.3785    0.6245   -1.0506 H   0  0  0  0  0  0  0  0  0  0  0  0
   -5.6565   -1.0948   -1.8933 H   0  0  0  0  0  0  0  0  0  0  0  0
   -4.3241    0.0447   -2.2371 H   0  0  0  0  0  0  0  0  0  0  0  0
   -5.5874   -1.7746    0.8656 H   0  0  0  0  0  0  0  0  0  0  0  0
   -6.1688   -0.6238    2.9724 H   0  0  0  0  0  0  0  0  0  0  0  0
   -6.0032    1.8445    3.1324 H   0  0  0  0  0  0  0  0  0  0  0  0
   -5.2589    3.1675    1.1727 H   0  0  0  0  0  0  0  0  0  0  0  0
   -4.6734    2.0368   -0.9410 H   0  0  0  0  0  0  0  0  0  0  0  0
   -2.1499   -3.6611   -0.6403 H   0  0  0  0  0  0  0  0  0  0  0  0
    0.2128   -3.4631    0.0235 H   0  0  0  0  0  0  0  0  0  0  0  0
    7.1912    0.5457   -3.2464 H   0  0  0  0  0  0  0  0  0  0  0  0
  1  2  1  0
  1  3  1  0
  3  4  1  0
  4  5  1  0
  5  6  2  0
  5  7  1  0
  7  8  1  0
  8  9  2  0
  9 10  1  0
 10 11  2  0
 11 12  1  0
 12 13  1  0
 13 14  1  0
 14 15  2  0
 15 16  1  0
 16 17  2  0
 17 18  1  0
 18 19  2  0
 11 20  1  0
 20 21  2  0
  1 22  1  0
 22 23  1  0
 22 24  2  0
 21  8  1  0
 19 14  1  0
  1 25  1  1
  2 26  1  0
  2 27  1  0
  3 28  1  0
  3 29  1  0
  4 30  1  0
  4 31  1  0
  7 32  1  0
  9 33  1  0
 10 34  1  0
 13 35  1  0
 13 36  1  0
 15 37  1  0
 16 38  1  0
 17 39  1  0
 18 40  1  0
 19 41  1  0
 20 42  1  0
 21 43  1  0
 23 44  1  0
M  END
$$$$
