
     RDKit          3D

 34 34  0  0  0  0  0  0  0  0999 V2000
   -0.2372   -0.0109   -1.9646 C   0  0  0  0  0  0  0  0  0  0  0  0
   -0.1411   -0.1689   -0.4402 C   0  0  0  0  0  0  0  0  0  0  0  0
   -1.3347   -0.8406    0.1337 N   0  0  0  0  0  0  0  0  0  0  0  0
   -2.6435   -0.1203    0.1195 C   0  0  0  0  0  0  0  0  0  0  0  0
   -3.5461   -0.7307    1.2198 C   0  0  0  0  0  0  0  0  0  0  0  0
   -3.3628   -0.3443   -1.2281 C   0  0  0  0  0  0  0  0  0  0  0  0
   -2.5093    1.3931    0.4068 C   0  0  0  0  0  0  0  0  0  0  0  0
    1.0925   -0.9947   -0.1277 C   0  0  0  0  0  0  0  0  0  0  0  0
    1.0064   -2.2527   -0.1867 O   0  0  0  0  0  0  0  0  0  0  0  0
    2.4028   -0.3762    0.2102 C   0  0  0  0  0  0  0  0  0  0  0  0
    3.3748   -1.1320    0.8937 C   0  0  0  0  0  0  0  0  0  0  0  0
    4.6152   -0.5711    1.2178 C   0  0  0  0  0  0  0  0  0  0  0  0
    5.8116   -1.5239    2.0771 Cl  0  0  0  0  0  0  0  0  0  0  0  0
    4.9014    0.7480    0.8577 C   0  0  0  0  0  0  0  0  0  0  0  0
    3.9510    1.5056    0.1712 C   0  0  0  0  0  0  0  0  0  0  0  0
    2.7100    0.9503   -0.1542 C   0  0  0  0  0  0  0  0  0  0  0  0
    0.7682    0.1421   -2.4135 H   0  0  0  0  0  0  0  0  0  0  0  0
   -0.6891   -0.9149   -2.4257 H   0  0  0  0  0  0  0  0  0  0  0  0
   -0.8270    0.8891   -2.2259 H   0  0  0  0  0  0  0  0  0  0  0  0
   -0.0103    0.8261    0.0315 H   0  0  0  0  0  0  0  0  0  0  0  0
   -1.0958   -1.0626    1.1306 H   0  0  0  0  0  0  0  0  0  0  0  0
   -4.5582   -0.2701    1.2143 H   0  0  0  0  0  0  0  0  0  0  0  0
   -3.1050   -0.5667    2.2269 H   0  0  0  0  0  0  0  0  0  0  0  0
   -3.6587   -1.8256    1.0641 H   0  0  0  0  0  0  0  0  0  0  0  0
   -2.9227    0.2532   -2.0465 H   0  0  0  0  0  0  0  0  0  0  0  0
   -3.3252   -1.4182   -1.5113 H   0  0  0  0  0  0  0  0  0  0  0  0
   -4.4296   -0.0384   -1.1627 H   0  0  0  0  0  0  0  0  0  0  0  0
   -1.9385    1.5601    1.3454 H   0  0  0  0  0  0  0  0  0  0  0  0
   -3.5122    1.8584    0.5226 H   0  0  0  0  0  0  0  0  0  0  0  0
   -2.0013    1.9232   -0.4247 H   0  0  0  0  0  0  0  0  0  0  0  0
    3.1687   -2.1546    1.1857 H   0  0  0  0  0  0  0  0  0  0  0  0
    5.8602    1.1854    1.1054 H   0  0  0  0  0  0  0  0  0  0  0  0
    4.1781    2.5245   -0.1147 H   0  0  0  0  0  0  0  0  0  0  0  0
    2.0075    1.5583   -0.7073 H   0  0  0  0  0  0  0  0  0  0  0  0
  1  2  1  0
  2  3  1  0
  3  4  1  0
  4  5  1  0
  4  6  1  0
  4  7  1  0
  2  8  1  0
  8  9  2  0
  8 10  1  0
 10 11  2  0
 11 12  1  0
 12 13  1  0
 12 14  2  0
 14 15  1  0
 15 16  2  0
 16 10  1  0
  1 17  1  0
  1 18  1  0
  1 19  1  0
  2 20  1  0
  3 21  1  0
  5 22  1  0
  5 23  1  0
  5 24  1  0
  6 25  1  0
  6 26  1  0
  6 27  1  0
  7 28  1  0
  7 29  1  0
  7 30  1  0
 11 31  1  0
 14 32  1  0
 15 33  1  0
 16 34  1  0
M  END
$$$$
