
     RDKit          3D

 15 15  0  0  0  0  0  0  0  0999 V2000
   -3.0427   -0.0975    0.0960 O   0  0  0  0  0  0  0  0  0  0  0  0
   -1.6507   -0.0748    0.0469 C   0  0  0  0  0  0  0  0  0  0  0  0
   -0.9459    1.1090    0.2990 C   0  0  0  0  0  0  0  0  0  0  0  0
    0.4514    1.1204    0.2470 C   0  0  0  0  0  0  0  0  0  0  0  0
    1.1634   -0.0537   -0.0582 C   0  0  0  0  0  0  0  0  0  0  0  0
    0.4460   -1.2386   -0.3100 C   0  0  0  0  0  0  0  0  0  0  0  0
   -0.9512   -1.2460   -0.2571 C   0  0  0  0  0  0  0  0  0  0  0  0
    2.6017   -0.0401   -0.1113 N   0  0  0  0  0  4  0  0  0  0  0  0
    3.2996    1.1201    0.1355 O   0  0  0  0  0  1  0  0  0  0  0  0
    3.2391   -1.0792   -0.3817 O   0  0  0  0  0  0  0  0  0  0  0  0
   -3.5784    0.7347    0.3136 H   0  0  0  0  0  0  0  0  0  0  0  0
   -1.4795    2.0209    0.5352 H   0  0  0  0  0  0  0  0  0  0  0  0
    0.9736    2.0473    0.4455 H   0  0  0  0  0  0  0  0  0  0  0  0
    0.9647   -2.1585   -0.5476 H   0  0  0  0  0  0  0  0  0  0  0  0
   -1.4911   -2.1639   -0.4527 H   0  0  0  0  0  0  0  0  0  0  0  0
  1  2  1  0
  2  3  2  0
  3  4  1  0
  4  5  2  0
  5  6  1  0
  6  7  2  0
  5  8  1  0
  8  9  1  0
  8 10  2  0
  7  2  1  0
  1 11  1  0
  3 12  1  0
  4 13  1  0
  6 14  1  0
  7 15  1  0
M  CHG  2   8   1   9  -1
M  END
$$$$
