
     RDKit          3D

 53 55  0  0  0  0  0  0  0  0999 V2000
    7.5617    1.6259    0.0680 C   0  0  0  0  0  0  0  0  0  0  0  0
    6.7877    1.0724   -1.1236 C   0  0  0  0  0  0  0  0  0  0  0  0
    5.4122    1.4487   -1.0530 O   0  0  0  0  0  0  0  0  0  0  0  0
    4.4517    0.8804   -0.1999 C   0  0  0  0  0  0  0  0  0  0  0  0
    3.1704    1.4430   -0.1825 C   0  0  0  0  0  0  0  0  0  0  0  0
    2.1734    0.9185    0.6441 C   0  0  0  0  0  0  0  0  0  0  0  0
    2.4434   -0.1843    1.4694 C   0  0  0  0  0  0  0  0  0  0  0  0
    1.3581   -0.7642    2.3393 C   0  0  0  0  0  0  0  0  0  0  0  0
    0.4004   -1.5931    1.5154 C   0  0  0  0  0  0  0  0  0  0  0  0
    0.6278   -2.9638    1.2619 C   0  0  0  0  0  0  0  0  0  0  0  0
    2.0134   -3.8212    1.9274 Cl  0  0  0  0  0  0  0  0  0  0  0  0
   -0.2701   -3.6837    0.4669 C   0  0  0  0  0  0  0  0  0  0  0  0
   -1.3848   -3.0560   -0.0904 C   0  0  0  0  0  0  0  0  0  0  0  0
   -1.6159   -1.6906    0.1334 C   0  0  0  0  0  0  0  0  0  0  0  0
   -0.7239   -0.9701    0.9458 C   0  0  0  0  0  0  0  0  0  0  0  0
   -2.8333   -1.0143   -0.4580 C   0  0  2  0  0  0  0  0  0  0  0  0
   -2.4413    0.2309   -1.0119 O   0  0  0  0  0  0  0  0  0  0  0  0
   -3.5139    0.8362   -1.7152 C   0  0  2  0  0  0  0  0  0  0  0  0
   -2.9626    2.0826   -2.4240 C   0  0  0  0  0  0  0  0  0  0  0  0
   -3.8976    2.5930   -3.3383 O   0  0  0  0  0  0  0  0  0  0  0  0
   -4.6582    1.1987   -0.7369 C   0  0  1  0  0  0  0  0  0  0  0  0
   -5.7456    1.7318   -1.4484 O   0  0  0  0  0  0  0  0  0  0  0  0
   -5.1141   -0.0662    0.0195 C   0  0  2  0  0  0  0  0  0  0  0  0
   -6.0588    0.2549    1.0107 O   0  0  0  0  0  0  0  0  0  0  0  0
   -3.9072   -0.8045    0.6296 C   0  0  1  0  0  0  0  0  0  0  0  0
   -4.3163   -2.0507    1.1336 O   0  0  0  0  0  0  0  0  0  0  0  0
    3.7261   -0.7538    1.4521 C   0  0  0  0  0  0  0  0  0  0  0  0
    4.7233   -0.2285    0.6249 C   0  0  0  0  0  0  0  0  0  0  0  0
    8.6352    1.3592   -0.0285 H   0  0  0  0  0  0  0  0  0  0  0  0
    7.4676    2.7320    0.0982 H   0  0  0  0  0  0  0  0  0  0  0  0
    7.1748    1.2052    1.0186 H   0  0  0  0  0  0  0  0  0  0  0  0
    7.2193    1.5042   -2.0510 H   0  0  0  0  0  0  0  0  0  0  0  0
    6.8947   -0.0308   -1.1915 H   0  0  0  0  0  0  0  0  0  0  0  0
    2.9464    2.2937   -0.8137 H   0  0  0  0  0  0  0  0  0  0  0  0
    1.1908    1.3730    0.6399 H   0  0  0  0  0  0  0  0  0  0  0  0
    1.7923   -1.3708    3.1625 H   0  0  0  0  0  0  0  0  0  0  0  0
    0.8108    0.0643    2.8404 H   0  0  0  0  0  0  0  0  0  0  0  0
   -0.1040   -4.7369    0.2784 H   0  0  0  0  0  0  0  0  0  0  0  0
   -2.0672   -3.6372   -0.6981 H   0  0  0  0  0  0  0  0  0  0  0  0
   -0.9062    0.0812    1.1339 H   0  0  0  0  0  0  0  0  0  0  0  0
   -3.2469   -1.6711   -1.2604 H   0  0  0  0  0  0  0  0  0  0  0  0
   -3.8959    0.1464   -2.5047 H   0  0  0  0  0  0  0  0  0  0  0  0
   -2.6539    2.8509   -1.6759 H   0  0  0  0  0  0  0  0  0  0  0  0
   -2.0517    1.7963   -2.9923 H   0  0  0  0  0  0  0  0  0  0  0  0
   -4.2861    3.4118   -2.9333 H   0  0  0  0  0  0  0  0  0  0  0  0
   -4.2707    1.9484   -0.0060 H   0  0  0  0  0  0  0  0  0  0  0  0
   -6.2842    2.2568   -0.8004 H   0  0  0  0  0  0  0  0  0  0  0  0
   -5.6071   -0.7485   -0.7091 H   0  0  0  0  0  0  0  0  0  0  0  0
   -5.6194    0.8645    1.6599 H   0  0  0  0  0  0  0  0  0  0  0  0
   -3.4696   -0.1838    1.4479 H   0  0  0  0  0  0  0  0  0  0  0  0
   -4.7300   -1.8804    2.0198 H   0  0  0  0  0  0  0  0  0  0  0  0
    3.9582   -1.6036    2.0810 H   0  0  0  0  0  0  0  0  0  0  0  0
    5.6969   -0.6966    0.6356 H   0  0  0  0  0  0  0  0  0  0  0  0
  1  2  1  0
  2  3  1  0
  3  4  1  0
  4  5  2  0
  5  6  1  0
  6  7  2  0
  7  8  1  0
  8  9  1  0
  9 10  2  0
 10 11  1  0
 10 12  1  0
 12 13  2  0
 13 14  1  0
 14 15  2  0
 14 16  1  0
 16 17  1  0
 17 18  1  0
 18 19  1  0
 19 20  1  0
 18 21  1  0
 21 22  1  0
 21 23  1  0
 23 24  1  0
 23 25  1  0
 25 26  1  0
  7 27  1  0
 27 28  2  0
 28  4  1  0
 15  9  1  0
 25 16  1  0
  1 29  1  0
  1 30  1  0
  1 31  1  0
  2 32  1  0
  2 33  1  0
  5 34  1  0
  6 35  1  0
  8 36  1  0
  8 37  1  0
 12 38  1  0
 13 39  1  0
 15 40  1  0
 16 41  1  6
 18 42  1  6
 19 43  1  0
 19 44  1  0
 20 45  1  0
 21 46  1  1
 22 47  1  0
 23 48  1  6
 24 49  1  0
 25 50  1  1
 26 51  1  0
 27 52  1  0
 28 53  1  0
M  END
$$$$
