
     RDKit          3D

 75 78  0  0  0  0  0  0  0  0999 V2000
    0.3228    0.7622   -0.7977 C   0  0  2  0  0  0  0  0  0  0  0  0
   -0.6892    1.8270   -1.2011 C   0  0  0  0  0  0  0  0  0  0  0  0
   -2.0238    1.3269   -0.6184 C   0  0  0  0  0  0  0  0  0  0  0  0
   -1.7186    0.0511    0.2225 C   0  0  2  0  0  0  0  0  0  0  0  0
   -1.9223   -1.0729   -0.6565 O   0  0  0  0  0  0  0  0  0  0  0  0
   -2.0845   -2.4175   -0.2852 C   0  0  0  0  0  0  0  0  0  0  0  0
   -2.0095   -2.7807    0.9197 O   0  0  0  0  0  0  0  0  0  0  0  0
   -2.3908   -3.4278   -1.3424 C   0  0  0  0  0  0  0  0  0  0  0  0
   -3.8881   -3.4230   -1.6610 C   0  0  0  0  0  0  0  0  0  0  0  0
   -4.2233   -4.4410   -2.7467 C   0  0  0  0  0  0  0  0  0  0  0  0
   -2.6739   -0.0527    1.4156 C   0  0  0  0  0  0  0  0  0  0  0  0
   -2.2682   -0.4438    2.4996 O   0  0  0  0  0  0  0  0  0  0  0  0
   -4.1519    0.1901    1.2498 C   0  0  0  0  0  0  0  0  0  0  0  0
   -4.4901    1.5085    1.6736 O   0  0  0  0  0  0  0  0  0  0  0  0
   -4.5360    1.9000    3.0161 C   0  0  0  0  0  0  0  0  0  0  0  0
   -4.3668    1.0591    3.9408 O   0  0  0  0  0  0  0  0  0  0  0  0
   -4.8425    3.3235    3.3544 C   0  0  0  0  0  0  0  0  0  0  0  0
   -6.3487    3.5481    3.4115 C   0  0  0  0  0  0  0  0  0  0  0  0
   -0.1955    0.2487    0.5645 C   0  0  2  0  0  0  0  0  0  0  0  0
   -0.0490    1.3092    1.7179 C   0  0  0  0  0  0  0  0  0  0  0  0
    0.6055   -1.0309    0.9337 C   0  0  0  0  0  0  0  0  0  0  0  0
    2.1460   -0.8068    0.9268 C   0  0  2  0  0  0  0  0  0  0  0  0
    2.5469   -0.0177    2.0145 O   0  0  0  0  0  0  0  0  0  0  0  0
    2.6247   -0.1863   -0.4244 C   0  0  1  0  0  0  0  0  0  0  0  0
    1.8330    1.1131   -0.7916 C   0  0  1  0  0  0  0  0  0  0  0  0
    2.3231    1.7507   -2.1269 C   0  0  0  0  0  0  0  0  0  0  0  0
    3.2930    0.8825   -2.9384 C   0  0  0  0  0  0  0  0  0  0  0  0
    4.4190    0.3252   -2.0931 C   0  0  0  0  0  0  0  0  0  0  0  0
    5.5765    0.0081   -2.6991 C   0  0  0  0  0  0  0  0  0  0  0  0
    6.6301   -0.7527   -2.0107 C   0  0  0  0  0  0  0  0  0  0  0  0
    7.7365   -0.9359   -2.5837 O   0  0  0  0  0  0  0  0  0  0  0  0
    6.4109   -1.3069   -0.6352 C   0  0  0  0  0  0  0  0  0  0  0  0
    4.9183   -1.3392   -0.2704 C   0  0  0  0  0  0  0  0  0  0  0  0
    4.1780   -0.0110   -0.6164 C   0  0  2  0  0  0  0  0  0  0  0  0
    4.7559    1.1397    0.2499 C   0  0  0  0  0  0  0  0  0  0  0  0
    0.2099   -0.0529   -1.5535 H   0  0  0  0  0  0  0  0  0  0  0  0
   -0.7627    1.9224   -2.3059 H   0  0  0  0  0  0  0  0  0  0  0  0
   -0.4136    2.8119   -0.7641 H   0  0  0  0  0  0  0  0  0  0  0  0
   -2.4684    2.1352    0.0027 H   0  0  0  0  0  0  0  0  0  0  0  0
   -2.7426    1.1006   -1.4370 H   0  0  0  0  0  0  0  0  0  0  0  0
   -2.0795   -4.4377   -0.9957 H   0  0  0  0  0  0  0  0  0  0  0  0
   -1.8092   -3.1790   -2.2565 H   0  0  0  0  0  0  0  0  0  0  0  0
   -4.1946   -2.4118   -2.0086 H   0  0  0  0  0  0  0  0  0  0  0  0
   -4.4670   -3.6700   -0.7440 H   0  0  0  0  0  0  0  0  0  0  0  0
   -3.9499   -5.4649   -2.4133 H   0  0  0  0  0  0  0  0  0  0  0  0
   -3.6755   -4.2011   -3.6829 H   0  0  0  0  0  0  0  0  0  0  0  0
   -5.3134   -4.4151   -2.9566 H   0  0  0  0  0  0  0  0  0  0  0  0
   -4.4322    0.0815    0.1813 H   0  0  0  0  0  0  0  0  0  0  0  0
   -4.7375   -0.5645    1.8191 H   0  0  0  0  0  0  0  0  0  0  0  0
   -4.3912    3.5839    4.3363 H   0  0  0  0  0  0  0  0  0  0  0  0
   -4.3991    3.9881    2.5822 H   0  0  0  0  0  0  0  0  0  0  0  0
   -6.8110    3.3159    2.4281 H   0  0  0  0  0  0  0  0  0  0  0  0
   -6.5567    4.6101    3.6600 H   0  0  0  0  0  0  0  0  0  0  0  0
   -6.8053    2.9038    4.1931 H   0  0  0  0  0  0  0  0  0  0  0  0
   -0.7754    2.1413    1.6220 H   0  0  0  0  0  0  0  0  0  0  0  0
    0.9446    1.7793    1.7816 H   0  0  0  0  0  0  0  0  0  0  0  0
   -0.2139    0.8405    2.7090 H   0  0  0  0  0  0  0  0  0  0  0  0
    0.4033   -1.8305    0.1928 H   0  0  0  0  0  0  0  0  0  0  0  0
    0.2837   -1.4163    1.9250 H   0  0  0  0  0  0  0  0  0  0  0  0
    2.6026   -1.8172    1.0289 H   0  0  0  0  0  0  0  0  0  0  0  0
    2.4487   -0.5768    2.8290 H   0  0  0  0  0  0  0  0  0  0  0  0
    2.3305   -0.9542   -1.1792 H   0  0  0  0  0  0  0  0  0  0  0  0
    2.0109    1.8790   -0.0171 H   0  0  0  0  0  0  0  0  0  0  0  0
    1.4760    2.0210   -2.7886 H   0  0  0  0  0  0  0  0  0  0  0  0
    2.8417    2.7079   -1.8966 H   0  0  0  0  0  0  0  0  0  0  0  0
    2.7360    0.0365   -3.3958 H   0  0  0  0  0  0  0  0  0  0  0  0
    3.6997    1.5037   -3.7671 H   0  0  0  0  0  0  0  0  0  0  0  0
    5.7261    0.2515   -3.7448 H   0  0  0  0  0  0  0  0  0  0  0  0
    6.9725   -0.6920    0.0994 H   0  0  0  0  0  0  0  0  0  0  0  0
    6.8164   -2.3405   -0.5857 H   0  0  0  0  0  0  0  0  0  0  0  0
    4.4415   -2.1827   -0.8182 H   0  0  0  0  0  0  0  0  0  0  0  0
    4.8436   -1.5569    0.8165 H   0  0  0  0  0  0  0  0  0  0  0  0
    4.2253    2.0968    0.0850 H   0  0  0  0  0  0  0  0  0  0  0  0
    4.7207    0.8917    1.3294 H   0  0  0  0  0  0  0  0  0  0  0  0
    5.8176    1.3347   -0.0085 H   0  0  0  0  0  0  0  0  0  0  0  0
  1  2  1  0
  2  3  1  0
  3  4  1  0
  4  5  1  6
  5  6  1  0
  6  7  2  0
  6  8  1  0
  8  9  1  0
  9 10  1  0
  4 11  1  0
 11 12  2  0
 11 13  1  0
 13 14  1  0
 14 15  1  0
 15 16  2  0
 15 17  1  0
 17 18  1  0
  4 19  1  0
 19 20  1  1
 19 21  1  0
 21 22  1  0
 22 23  1  0
 22 24  1  0
 24 25  1  0
 25 26  1  0
 26 27  1  0
 27 28  1  0
 28 29  2  0
 29 30  1  0
 30 31  2  0
 30 32  1  0
 32 33  1  0
 33 34  1  0
 34 35  1  1
 19  1  1  0
 34 24  1  0
 25  1  1  0
 34 28  1  0
  1 36  1  6
  2 37  1  0
  2 38  1  0
  3 39  1  0
  3 40  1  0
  8 41  1  0
  8 42  1  0
  9 43  1  0
  9 44  1  0
 10 45  1  0
 10 46  1  0
 10 47  1  0
 13 48  1  0
 13 49  1  0
 17 50  1  0
 17 51  1  0
 18 52  1  0
 18 53  1  0
 18 54  1  0
 20 55  1  0
 20 56  1  0
 20 57  1  0
 21 58  1  0
 21 59  1  0
 22 60  1  1
 23 61  1  0
 24 62  1  6
 25 63  1  1
 26 64  1  0
 26 65  1  0
 27 66  1  0
 27 67  1  0
 29 68  1  0
 32 69  1  0
 32 70  1  0
 33 71  1  0
 33 72  1  0
 35 73  1  0
 35 74  1  0
 35 75  1  0
M  END
$$$$
