
     RDKit          3D

 50 51  0  0  0  0  0  0  0  0999 V2000
    0.1128    1.6144   -0.8209 C   0  0  2  0  0  0  0  0  0  0  0  0
    0.1711    3.0957   -0.4433 C   0  0  0  0  0  0  0  0  0  0  0  0
   -1.0820    3.3615    0.3896 C   0  0  0  0  0  0  0  0  0  0  0  0
   -2.0683    2.2598    0.0212 C   0  0  0  0  0  0  0  0  0  0  0  0
   -1.2771    1.2287   -0.6256 N   0  0  0  0  0  0  0  0  0  0  0  0
   -1.8388   -0.0071   -1.0890 C   0  0  0  0  0  0  0  0  0  0  0  0
   -1.1101   -0.8475   -1.6849 O   0  0  0  0  0  0  0  0  0  0  0  0
   -3.1946   -0.2734   -0.8756 O   0  0  0  0  0  0  0  0  0  0  0  0
   -3.8190   -1.4780   -1.3045 C   0  0  0  0  0  0  0  0  0  0  0  0
   -5.2687   -1.4463   -0.9190 C   0  0  0  0  0  0  0  0  0  0  0  0
   -5.6768   -1.9160    0.3403 C   0  0  0  0  0  0  0  0  0  0  0  0
   -7.0228   -1.8495    0.7139 C   0  0  0  0  0  0  0  0  0  0  0  0
   -7.9664   -1.3032   -0.1606 C   0  0  0  0  0  0  0  0  0  0  0  0
   -7.5647   -0.8179   -1.4083 C   0  0  0  0  0  0  0  0  0  0  0  0
   -6.2196   -0.8826   -1.7857 C   0  0  0  0  0  0  0  0  0  0  0  0
    1.0187    0.7930    0.0594 C   0  0  0  0  0  0  0  0  0  0  0  0
    0.6640    0.5056    1.2354 O   0  0  0  0  0  0  0  0  0  0  0  0
    2.3040    0.3841   -0.4165 N   0  0  0  0  0  0  0  0  0  0  0  0
    3.1855   -0.3130    0.4270 N   0  0  0  0  0  0  0  0  0  0  0  0
    4.2764    0.5919    0.7996 C   0  0  0  0  0  0  0  0  0  0  0  0
    5.0803    0.0297    1.9818 C   0  0  0  0  0  0  0  0  0  0  0  0
    5.7722   -1.3161    1.7022 C   0  0  0  0  0  0  0  0  0  0  0  0
    6.8435   -1.2219    0.6090 C   0  0  0  0  0  0  0  0  0  0  0  0
    7.5939   -2.4715    0.5351 N   0  0  0  0  0  0  0  0  0  0  0  0
    0.3925    1.4858   -1.8901 H   0  0  0  0  0  0  0  0  0  0  0  0
    0.1275    3.7111   -1.3690 H   0  0  0  0  0  0  0  0  0  0  0  0
    1.0944    3.3674    0.1155 H   0  0  0  0  0  0  0  0  0  0  0  0
   -1.5018    4.3692    0.1797 H   0  0  0  0  0  0  0  0  0  0  0  0
   -0.8288    3.2888    1.4703 H   0  0  0  0  0  0  0  0  0  0  0  0
   -2.8332    2.6433   -0.6885 H   0  0  0  0  0  0  0  0  0  0  0  0
   -2.5635    1.8550    0.9305 H   0  0  0  0  0  0  0  0  0  0  0  0
   -3.3165   -2.3500   -0.8313 H   0  0  0  0  0  0  0  0  0  0  0  0
   -3.7184   -1.5806   -2.4073 H   0  0  0  0  0  0  0  0  0  0  0  0
   -4.9540   -2.3321    1.0313 H   0  0  0  0  0  0  0  0  0  0  0  0
   -7.3338   -2.2177    1.6830 H   0  0  0  0  0  0  0  0  0  0  0  0
   -9.0076   -1.2511    0.1306 H   0  0  0  0  0  0  0  0  0  0  0  0
   -8.2950   -0.3878   -2.0815 H   0  0  0  0  0  0  0  0  0  0  0  0
   -5.9198   -0.4935   -2.7509 H   0  0  0  0  0  0  0  0  0  0  0  0
    2.6159    0.6663   -1.3744 H   0  0  0  0  0  0  0  0  0  0  0  0
    3.5839   -1.0982   -0.1381 H   0  0  0  0  0  0  0  0  0  0  0  0
    3.8553    1.5715    1.1205 H   0  0  0  0  0  0  0  0  0  0  0  0
    4.9387    0.7863   -0.0722 H   0  0  0  0  0  0  0  0  0  0  0  0
    5.8464    0.7775    2.2821 H   0  0  0  0  0  0  0  0  0  0  0  0
    4.3934   -0.1000    2.8464 H   0  0  0  0  0  0  0  0  0  0  0  0
    5.0207   -2.0879    1.4314 H   0  0  0  0  0  0  0  0  0  0  0  0
    6.2585   -1.6505    2.6447 H   0  0  0  0  0  0  0  0  0  0  0  0
    6.3715   -1.0166   -0.3768 H   0  0  0  0  0  0  0  0  0  0  0  0
    7.5447   -0.3923    0.8475 H   0  0  0  0  0  0  0  0  0  0  0  0
    6.9595   -3.2119    0.1556 H   0  0  0  0  0  0  0  0  0  0  0  0
    8.3560   -2.3440   -0.1696 H   0  0  0  0  0  0  0  0  0  0  0  0
  1  2  1  0
  2  3  1  0
  3  4  1  0
  4  5  1  0
  5  6  1  0
  6  7  2  0
  6  8  1  0
  8  9  1  0
  9 10  1  0
 10 11  2  0
 11 12  1  0
 12 13  2  0
 13 14  1  0
 14 15  2  0
  1 16  1  0
 16 17  2  0
 16 18  1  0
 18 19  1  0
 19 20  1  0
 20 21  1  0
 21 22  1  0
 22 23  1  0
 23 24  1  0
  5  1  1  0
 15 10  1  0
  1 25  1  6
  2 26  1  0
  2 27  1  0
  3 28  1  0
  3 29  1  0
  4 30  1  0
  4 31  1  0
  9 32  1  0
  9 33  1  0
 11 34  1  0
 12 35  1  0
 13 36  1  0
 14 37  1  0
 15 38  1  0
 18 39  1  0
 19 40  1  0
 20 41  1  0
 20 42  1  0
 21 43  1  0
 21 44  1  0
 22 45  1  0
 22 46  1  0
 23 47  1  0
 23 48  1  0
 24 49  1  0
 24 50  1  0
M  END
$$$$
