
     RDKit          3D

 48 52  0  0  0  0  0  0  0  0999 V2000
   -5.0009   -1.3717   -0.1708 O   0  0  0  0  0  0  0  0  0  0  0  0
   -4.4808   -0.5607    0.6423 C   0  0  0  0  0  0  0  0  0  0  0  0
   -4.1545   -1.0224    2.0367 C   0  0  0  0  0  0  0  0  0  0  0  0
   -2.8906   -1.9008    2.0623 C   0  0  0  0  0  0  0  0  0  0  0  0
   -1.6123   -1.1006    1.7625 C   0  0  0  0  0  0  0  0  0  0  0  0
   -0.3829   -2.0163    1.6613 C   0  0  0  0  0  0  0  0  0  0  0  0
    0.8784   -1.2392    1.3905 C   0  0  0  0  0  0  0  0  0  0  0  0
    1.1474   -0.3532    0.3721 C   0  0  0  0  0  0  0  0  0  0  0  0
    0.3111    0.1046   -0.5820 N   0  0  0  0  0  0  0  0  0  0  0  0
    0.7673    1.0479   -1.4557 C   0  0  0  0  0  0  0  0  0  0  0  0
   -0.1166    1.6000   -2.4451 N   0  0  0  0  0  0  0  0  0  0  0  0
   -1.5402    1.4017   -2.3918 C   0  0  0  0  0  0  0  0  0  0  0  0
   -2.2161    1.4008   -1.1608 C   0  0  0  0  0  0  0  0  0  0  0  0
   -3.5452    0.9761   -1.0771 C   0  0  0  0  0  0  0  0  0  0  0  0
   -4.1248    0.7626    0.2161 N   0  0  0  0  0  0  0  0  0  0  0  0
   -4.2505    0.6823   -2.2533 C   0  0  0  0  0  0  0  0  0  0  0  0
   -3.6146    0.7912   -3.4956 C   0  0  0  0  0  0  0  0  0  0  0  0
   -2.2598    1.1379   -3.5655 C   0  0  0  0  0  0  0  0  0  0  0  0
    2.0641    1.4760   -1.3788 N   0  0  0  0  0  0  0  0  0  0  0  0
    2.9055    0.9896   -0.4197 C   0  0  0  0  0  0  0  0  0  0  0  0
    4.2611    1.4650   -0.3665 N   0  0  0  0  0  0  0  0  0  0  0  0
    5.2736    0.9513    0.5522 C   0  0  0  0  0  0  0  0  0  0  0  0
    5.8489   -0.3907    0.1314 C   0  0  0  0  0  0  0  0  0  0  0  0
    6.6661    0.8778   -0.0523 C   0  0  0  0  0  0  0  0  0  0  0  0
    2.4073    0.0754    0.4603 N   0  0  0  0  0  0  0  0  0  0  0  0
    3.0031   -0.4987    1.4934 N   0  0  0  0  0  0  0  0  0  0  0  0
    2.0886   -1.3147    2.0750 C   0  0  0  0  0  0  0  0  0  0  0  0
   -4.0247   -0.1516    2.7149 H   0  0  0  0  0  0  0  0  0  0  0  0
   -5.0109   -1.6162    2.4229 H   0  0  0  0  0  0  0  0  0  0  0  0
   -3.0022   -2.7279    1.3266 H   0  0  0  0  0  0  0  0  0  0  0  0
   -2.7980   -2.3578    3.0716 H   0  0  0  0  0  0  0  0  0  0  0  0
   -1.4513   -0.3447    2.5622 H   0  0  0  0  0  0  0  0  0  0  0  0
   -1.7429   -0.5737    0.7995 H   0  0  0  0  0  0  0  0  0  0  0  0
   -0.5287   -2.7489    0.8385 H   0  0  0  0  0  0  0  0  0  0  0  0
   -0.2670   -2.5814    2.6116 H   0  0  0  0  0  0  0  0  0  0  0  0
    0.2998    2.0691   -3.2808 H   0  0  0  0  0  0  0  0  0  0  0  0
   -1.6885    1.6580   -0.2511 H   0  0  0  0  0  0  0  0  0  0  0  0
   -3.8848    1.4549    0.9613 H   0  0  0  0  0  0  0  0  0  0  0  0
   -5.2857    0.3694   -2.2075 H   0  0  0  0  0  0  0  0  0  0  0  0
   -4.1617    0.5690   -4.4027 H   0  0  0  0  0  0  0  0  0  0  0  0
   -1.7618    1.1585   -4.5266 H   0  0  0  0  0  0  0  0  0  0  0  0
    4.5249    2.2564   -0.9962 H   0  0  0  0  0  0  0  0  0  0  0  0
    5.1900    1.1713    1.6376 H   0  0  0  0  0  0  0  0  0  0  0  0
    6.1814   -1.0286    0.9773 H   0  0  0  0  0  0  0  0  0  0  0  0
    5.4395   -0.8106   -0.8125 H   0  0  0  0  0  0  0  0  0  0  0  0
    6.7565    1.2028   -1.1109 H   0  0  0  0  0  0  0  0  0  0  0  0
    7.4923    0.9899    0.6809 H   0  0  0  0  0  0  0  0  0  0  0  0
    2.2912   -1.9291    2.9421 H   0  0  0  0  0  0  0  0  0  0  0  0
  1  2  2  0
  2  3  1  0
  3  4  1  0
  4  5  1  0
  5  6  1  0
  6  7  1  0
  7  8  2  0
  8  9  1  0
  9 10  2  0
 10 11  1  0
 11 12  1  0
 12 13  1  0
 13 14  2  0
 14 15  1  0
 14 16  1  0
 16 17  2  0
 17 18  1  0
 10 19  1  0
 19 20  2  0
 20 21  1  0
 21 22  1  0
 22 23  1  0
 23 24  1  0
 20 25  1  0
 25 26  1  0
 26 27  2  0
 15  2  1  0
 24 22  1  0
 27  7  1  0
 25  8  1  0
 18 12  2  0
  3 28  1  0
  3 29  1  0
  4 30  1  0
  4 31  1  0
  5 32  1  0
  5 33  1  0
  6 34  1  0
  6 35  1  0
 11 36  1  0
 13 37  1  0
 15 38  1  0
 16 39  1  0
 17 40  1  0
 18 41  1  0
 21 42  1  0
 22 43  1  0
 23 44  1  0
 23 45  1  0
 24 46  1  0
 24 47  1  0
 27 48  1  0
M  END
$$$$
