
     RDKit          3D

 50 53  0  0  0  0  0  0  0  0999 V2000
    7.8641   -1.5360   -1.2546 N   0  0  0  0  0  0  0  0  0  0  0  0
    7.0836   -2.2596    0.1073 S   0  0  0  0  0  6  0  0  0  0  0  0
    6.6313   -3.6469   -0.2531 O   0  0  0  0  0  0  0  0  0  0  0  0
    8.0502   -2.3506    1.2552 O   0  0  0  0  0  0  0  0  0  0  0  0
    5.6962   -1.2817    0.5738 C   0  0  0  0  0  0  0  0  0  0  0  0
    4.4305   -1.5495    0.0363 C   0  0  0  0  0  0  0  0  0  0  0  0
    3.3319   -0.7643    0.3974 C   0  0  0  0  0  0  0  0  0  0  0  0
    3.4906    0.3134    1.2874 C   0  0  0  0  0  0  0  0  0  0  0  0
    2.3717    1.1204    1.6910 N   0  0  0  0  0  0  0  0  0  0  0  0
    1.1987    1.3240    0.8882 C   0  0  0  0  0  0  0  0  0  0  0  0
   -0.0739    1.3602    1.4806 C   0  0  0  0  0  0  0  0  0  0  0  0
   -1.2036    1.5775    0.6646 C   0  0  0  0  0  0  0  0  0  0  0  0
   -2.4735    1.5935    1.2519 O   0  0  0  0  0  0  0  0  0  0  0  0
   -3.6868    1.7192    0.5099 C   0  0  0  0  0  0  0  0  0  0  0  0
   -4.0319    0.4054   -0.2201 C   0  0  0  0  0  0  0  0  0  0  0  0
   -4.0731   -0.7819    0.7780 C   0  0  0  0  0  0  0  0  0  0  0  0
   -4.9434   -1.9277    0.2530 C   0  0  0  0  0  0  0  0  0  0  0  0
   -6.4088   -1.4860    0.0645 C   0  0  0  0  0  0  0  0  0  0  0  0
   -6.5605    0.0134   -0.2623 C   0  0  0  0  0  0  0  0  0  0  0  0
   -5.3482    0.5498   -1.0321 C   0  0  0  0  0  0  0  0  0  0  0  0
   -1.0508    1.7761   -0.6807 N   0  0  0  0  0  0  0  0  0  0  0  0
    0.1960    1.7526   -1.2090 C   0  0  0  0  0  0  0  0  0  0  0  0
    0.5053    1.9763   -2.4968 N   0  0  0  0  0  0  0  0  0  0  0  0
    1.8615    1.8862   -2.4557 C   0  0  0  0  0  0  0  0  0  0  0  0
    2.3431    1.6293   -1.2151 N   0  0  0  0  0  0  0  0  0  0  0  0
    1.2719    1.5396   -0.4521 N   0  0  0  0  0  0  0  0  0  0  0  0
    4.7570    0.5676    1.8336 C   0  0  0  0  0  0  0  0  0  0  0  0
    5.8550   -0.2184    1.4719 C   0  0  0  0  0  0  0  0  0  0  0  0
    8.1989   -0.5946   -0.9496 H   0  0  0  0  0  0  0  0  0  0  0  0
    8.7146   -2.1071   -1.4586 H   0  0  0  0  0  0  0  0  0  0  0  0
    4.2919   -2.3672   -0.6594 H   0  0  0  0  0  0  0  0  0  0  0  0
    2.3586   -1.0041   -0.0109 H   0  0  0  0  0  0  0  0  0  0  0  0
    2.3879    1.5432    2.6468 H   0  0  0  0  0  0  0  0  0  0  0  0
   -0.1901    1.2092    2.5465 H   0  0  0  0  0  0  0  0  0  0  0  0
   -4.5050    1.9748    1.2166 H   0  0  0  0  0  0  0  0  0  0  0  0
   -3.5971    2.5574   -0.2157 H   0  0  0  0  0  0  0  0  0  0  0  0
   -3.2209    0.2026   -0.9538 H   0  0  0  0  0  0  0  0  0  0  0  0
   -4.4809   -0.4544    1.7604 H   0  0  0  0  0  0  0  0  0  0  0  0
   -3.0404   -1.1553    0.9526 H   0  0  0  0  0  0  0  0  0  0  0  0
   -4.9015   -2.7829    0.9617 H   0  0  0  0  0  0  0  0  0  0  0  0
   -4.5316   -2.2770   -0.7197 H   0  0  0  0  0  0  0  0  0  0  0  0
   -6.9825   -1.7066    0.9911 H   0  0  0  0  0  0  0  0  0  0  0  0
   -6.8589   -2.0892   -0.7538 H   0  0  0  0  0  0  0  0  0  0  0  0
   -7.4825    0.1700   -0.8630 H   0  0  0  0  0  0  0  0  0  0  0  0
   -6.6737    0.5906    0.6816 H   0  0  0  0  0  0  0  0  0  0  0  0
   -5.5305    1.6091   -1.3166 H   0  0  0  0  0  0  0  0  0  0  0  0
   -5.2562   -0.0225   -1.9819 H   0  0  0  0  0  0  0  0  0  0  0  0
    2.4932    2.0147   -3.3242 H   0  0  0  0  0  0  0  0  0  0  0  0
    4.8944    1.3838    2.5316 H   0  0  0  0  0  0  0  0  0  0  0  0
    6.8280    0.0036    1.8915 H   0  0  0  0  0  0  0  0  0  0  0  0
  1  2  1  0
  2  3  2  0
  2  4  2  0
  2  5  1  0
  5  6  2  0
  6  7  1  0
  7  8  2  0
  8  9  1  0
  9 10  1  0
 10 11  2  0
 11 12  1  0
 12 13  1  0
 13 14  1  0
 14 15  1  0
 15 16  1  0
 16 17  1  0
 17 18  1  0
 18 19  1  0
 19 20  1  0
 12 21  2  0
 21 22  1  0
 22 23  2  0
 23 24  1  0
 24 25  2  0
 25 26  1  0
  8 27  1  0
 27 28  2  0
 28  5  1  0
 26 10  1  0
 20 15  1  0
 26 22  1  0
  1 29  1  0
  1 30  1  0
  6 31  1  0
  7 32  1  0
  9 33  1  0
 11 34  1  0
 14 35  1  0
 14 36  1  0
 15 37  1  0
 16 38  1  0
 16 39  1  0
 17 40  1  0
 17 41  1  0
 18 42  1  0
 18 43  1  0
 19 44  1  0
 19 45  1  0
 20 46  1  0
 20 47  1  0
 24 48  1  0
 27 49  1  0
 28 50  1  0
M  END
$$$$
