
     RDKit          3D

 31 33  0  0  0  0  0  0  0  0999 V2000
   -2.8032    3.4325   -1.7001 O   0  0  0  0  0  0  0  0  0  0  0  0
   -3.0449    2.0764   -1.5046 C   0  0  0  0  0  0  0  0  0  0  0  0
   -4.0245    1.5285   -2.0761 O   0  0  0  0  0  0  0  0  0  0  0  0
   -2.1522    1.2997   -0.6321 C   0  0  0  0  0  0  0  0  0  0  0  0
   -1.0843    1.8369    0.0055 N   0  0  0  0  0  0  0  0  0  0  0  0
   -0.4905    0.8762    0.7053 N   0  0  0  0  0  0  0  0  0  0  0  0
    0.7256    1.0791    1.4921 C   0  0  0  0  0  0  0  0  0  0  0  0
    1.9224    0.4910    0.7789 C   0  0  0  0  0  0  0  0  0  0  0  0
    2.7733   -0.4640    1.3852 C   0  0  0  0  0  0  0  0  0  0  0  0
    2.5261   -1.0424    3.0305 Cl  0  0  0  0  0  0  0  0  0  0  0  0
    3.8669   -0.9743    0.6740 C   0  0  0  0  0  0  0  0  0  0  0  0
    4.1315   -0.5400   -0.6273 C   0  0  0  0  0  0  0  0  0  0  0  0
    5.5046   -1.1866   -1.5068 Cl  0  0  0  0  0  0  0  0  0  0  0  0
    3.3063    0.4143   -1.2244 C   0  0  0  0  0  0  0  0  0  0  0  0
    2.2129    0.9302   -0.5256 C   0  0  0  0  0  0  0  0  0  0  0  0
   -1.1630   -0.2762    0.5177 C   0  0  0  0  0  0  0  0  0  0  0  0
   -2.2216   -0.0499   -0.3209 C   0  0  0  0  0  0  0  0  0  0  0  0
   -3.0932   -1.0736   -0.6977 C   0  0  0  0  0  0  0  0  0  0  0  0
   -2.8500   -2.3613   -0.1849 C   0  0  0  0  0  0  0  0  0  0  0  0
   -1.7570   -2.5948    0.6794 C   0  0  0  0  0  0  0  0  0  0  0  0
   -0.8958   -1.5429    1.0406 C   0  0  0  0  0  0  0  0  0  0  0  0
   -3.4051    3.9871   -2.2970 H   0  0  0  0  0  0  0  0  0  0  0  0
    0.5743    0.6473    2.5013 H   0  0  0  0  0  0  0  0  0  0  0  0
    0.8982    2.1678    1.6353 H   0  0  0  0  0  0  0  0  0  0  0  0
    4.5159   -1.7079    1.1358 H   0  0  0  0  0  0  0  0  0  0  0  0
    3.5115    0.7589   -2.2299 H   0  0  0  0  0  0  0  0  0  0  0  0
    1.5882    1.6735   -1.0053 H   0  0  0  0  0  0  0  0  0  0  0  0
   -3.9284   -0.8977   -1.3610 H   0  0  0  0  0  0  0  0  0  0  0  0
   -3.5047   -3.1794   -0.4556 H   0  0  0  0  0  0  0  0  0  0  0  0
   -1.5805   -3.5900    1.0661 H   0  0  0  0  0  0  0  0  0  0  0  0
   -0.0588   -1.7181    1.7016 H   0  0  0  0  0  0  0  0  0  0  0  0
  1  2  1  0
  2  3  2  0
  2  4  1  0
  4  5  2  0
  5  6  1  0
  6  7  1  0
  7  8  1  0
  8  9  2  0
  9 10  1  0
  9 11  1  0
 11 12  2  0
 12 13  1  0
 12 14  1  0
 14 15  2  0
  6 16  1  0
 16 17  2  0
 17 18  1  0
 18 19  2  0
 19 20  1  0
 20 21  2  0
 17  4  1  0
 15  8  1  0
 21 16  1  0
  1 22  1  0
  7 23  1  0
  7 24  1  0
 11 25  1  0
 14 26  1  0
 15 27  1  0
 18 28  1  0
 19 29  1  0
 20 30  1  0
 21 31  1  0
M  END
$$$$
