
     RDKit          3D

 61 65  0  0  0  0  0  0  0  0999 V2000
    4.2458   -0.7327   -1.8274 N   0  0  0  0  0  0  0  0  0  0  0  0
    4.4434   -0.8150   -0.3779 C   0  0  1  0  0  0  0  0  0  0  0  0
    4.8270    0.5598    0.1936 C   0  0  0  0  0  0  0  0  0  0  0  0
    6.1325    1.0390   -0.3714 C   0  0  0  0  0  0  0  0  0  0  0  0
    6.3035    1.8946   -1.4557 C   0  0  0  0  0  0  0  0  0  0  0  0
    7.6190    2.0545   -1.7275 N   0  0  0  0  0  0  0  0  0  0  0  0
    8.2782    1.2987   -0.8319 C   0  0  0  0  0  0  0  0  0  0  0  0
    9.6574    1.1255   -0.7242 C   0  0  0  0  0  0  0  0  0  0  0  0
   10.1356    0.2670    0.2828 C   0  0  0  0  0  0  0  0  0  0  0  0
    9.2347   -0.3941    1.1473 C   0  0  0  0  0  0  0  0  0  0  0  0
    7.8475   -0.2017    1.0140 C   0  0  0  0  0  0  0  0  0  0  0  0
    7.4043    0.6592    0.0096 C   0  0  0  0  0  0  0  0  0  0  0  0
    3.2004   -1.3297    0.2968 C   0  0  0  0  0  0  0  0  0  0  0  0
    3.2426   -2.4131    0.9414 O   0  0  0  0  0  0  0  0  0  0  0  0
    2.0112   -0.6018    0.2029 O   0  0  0  0  0  0  0  0  0  0  0  0
    0.5526   -1.1193    0.9498 P   0  0  0  0  0  5  0  0  0  0  0  0
    0.8046   -1.2684    2.6170 O   0  0  0  0  0  0  0  0  0  0  0  0
    0.1503   -2.4601    0.3773 O   0  0  0  0  0  0  0  0  0  0  0  0
   -0.6598    0.0445    0.6469 O   0  0  0  0  0  0  0  0  0  0  0  0
   -1.8863   -0.3757    1.2109 C   0  0  0  0  0  0  0  0  0  0  0  0
   -2.7968   -0.9886    0.1368 C   0  0  1  0  0  0  0  0  0  0  0  0
   -4.0334   -1.3467    0.7129 O   0  0  0  0  0  0  0  0  0  0  0  0
   -5.0487   -1.0924   -0.2380 C   0  0  2  0  0  0  0  0  0  0  0  0
   -4.4308   -0.4609   -1.4916 C   0  0  2  0  0  0  0  0  0  0  0  0
   -4.3590   -1.3884   -2.5509 O   0  0  0  0  0  0  0  0  0  0  0  0
   -3.0630   -0.0279   -1.0158 C   0  0  2  0  0  0  0  0  0  0  0  0
   -2.0835   -0.1523   -2.0145 O   0  0  0  0  0  0  0  0  0  0  0  0
   -6.0506   -0.1961    0.3437 N   0  0  0  0  0  0  0  0  0  0  0  0
   -5.8457    0.8787    1.1502 C   0  0  0  0  0  0  0  0  0  0  0  0
   -6.9859    1.5682    1.4318 N   0  0  0  0  0  0  0  0  0  0  0  0
   -7.9234    0.8811    0.7521 C   0  0  0  0  0  0  0  0  0  0  0  0
   -9.2868    1.1255    0.6334 C   0  0  0  0  0  0  0  0  0  0  0  0
   -9.9165    2.2185    1.3020 N   0  0  0  0  0  0  0  0  0  0  0  0
  -10.0148    0.2809   -0.1572 N   0  0  0  0  0  0  0  0  0  0  0  0
   -9.4249   -0.7692   -0.8148 C   0  0  0  0  0  0  0  0  0  0  0  0
   -8.0824   -0.9981   -0.6929 N   0  0  0  0  0  0  0  0  0  0  0  0
   -7.3658   -0.1629    0.0978 C   0  0  0  0  0  0  0  0  0  0  0  0
    4.0266   -1.6892   -2.1903 H   0  0  0  0  0  0  0  0  0  0  0  0
    3.4218   -0.1219   -2.0351 H   0  0  0  0  0  0  0  0  0  0  0  0
    5.2782   -1.5241   -0.1760 H   0  0  0  0  0  0  0  0  0  0  0  0
    4.9187    0.4936    1.2998 H   0  0  0  0  0  0  0  0  0  0  0  0
    4.0322    1.3042   -0.0324 H   0  0  0  0  0  0  0  0  0  0  0  0
    5.5086    2.3640   -2.0205 H   0  0  0  0  0  0  0  0  0  0  0  0
    8.0336    2.6368   -2.4887 H   0  0  0  0  0  0  0  0  0  0  0  0
   10.3395    1.6321   -1.3947 H   0  0  0  0  0  0  0  0  0  0  0  0
   11.2006    0.1101    0.3939 H   0  0  0  0  0  0  0  0  0  0  0  0
    9.6139   -1.0542    1.9165 H   0  0  0  0  0  0  0  0  0  0  0  0
    7.1514   -0.7075    1.6704 H   0  0  0  0  0  0  0  0  0  0  0  0
    1.0856   -0.3649    2.9094 H   0  0  0  0  0  0  0  0  0  0  0  0
   -2.3887    0.5198    1.6347 H   0  0  0  0  0  0  0  0  0  0  0  0
   -1.7791   -1.0855    2.0642 H   0  0  0  0  0  0  0  0  0  0  0  0
   -2.3206   -1.9157   -0.2519 H   0  0  0  0  0  0  0  0  0  0  0  0
   -5.5368   -2.0594   -0.4930 H   0  0  0  0  0  0  0  0  0  0  0  0
   -5.0123    0.4216   -1.8394 H   0  0  0  0  0  0  0  0  0  0  0  0
   -3.8509   -2.1819   -2.2361 H   0  0  0  0  0  0  0  0  0  0  0  0
   -3.1137    1.0234   -0.6437 H   0  0  0  0  0  0  0  0  0  0  0  0
   -2.2342    0.5964   -2.6486 H   0  0  0  0  0  0  0  0  0  0  0  0
   -4.8728    1.1726    1.5212 H   0  0  0  0  0  0  0  0  0  0  0  0
  -10.9422    2.3795    1.1925 H   0  0  0  0  0  0  0  0  0  0  0  0
   -9.3661    2.8684    1.9063 H   0  0  0  0  0  0  0  0  0  0  0  0
  -10.0258   -1.4191   -1.4357 H   0  0  0  0  0  0  0  0  0  0  0  0
  1  2  1  0
  2  3  1  0
  3  4  1  0
  4  5  2  0
  5  6  1  0
  6  7  1  0
  7  8  2  0
  8  9  1  0
  9 10  2  0
 10 11  1  0
 11 12  2  0
  2 13  1  0
 13 14  2  0
 13 15  1  0
 15 16  1  0
 16 17  1  0
 16 18  2  0
 16 19  1  0
 19 20  1  0
 20 21  1  0
 21 22  1  0
 22 23  1  0
 23 24  1  0
 24 25  1  0
 24 26  1  0
 26 27  1  0
 23 28  1  0
 28 29  1  0
 29 30  2  0
 30 31  1  0
 31 32  2  0
 32 33  1  0
 32 34  1  0
 34 35  2  0
 35 36  1  0
 36 37  2  0
 12  4  1  0
 26 21  1  0
 37 28  1  0
 12  7  1  0
 37 31  1  0
  1 38  1  0
  1 39  1  0
  2 40  1  6
  3 41  1  0
  3 42  1  0
  5 43  1  0
  6 44  1  0
  8 45  1  0
  9 46  1  0
 10 47  1  0
 11 48  1  0
 17 49  1  0
 20 50  1  0
 20 51  1  0
 21 52  1  6
 23 53  1  6
 24 54  1  6
 25 55  1  0
 26 56  1  1
 27 57  1  0
 29 58  1  0
 33 59  1  0
 33 60  1  0
 35 61  1  0
M  END
$$$$
