
     RDKit          3D

 48 49  0  0  0  0  0  0  0  0999 V2000
   -4.4605    4.2680   -0.6625 C   0  0  0  0  0  0  0  0  0  0  0  0
   -4.1066    2.8198   -0.5993 C   0  0  0  0  0  0  0  0  0  0  0  0
   -3.1009    2.4011    0.2082 N   0  0  0  0  0  0  0  0  0  0  0  0
   -2.7821    1.0863    0.3072 C   0  0  0  0  0  0  0  0  0  0  0  0
   -3.4943    0.1219   -0.4311 C   0  0  0  0  0  0  0  0  0  0  0  0
   -3.1588   -1.3585   -0.3487 C   0  0  0  0  0  0  0  0  0  0  0  0
   -1.9048   -1.6295    0.3846 N   0  0  0  0  0  4  0  0  0  0  0  0
   -2.0110   -1.9558    1.7102 C   0  0  0  0  0  0  0  0  0  0  0  0
   -0.8856   -2.2511    2.4689 C   0  0  0  0  0  0  0  0  0  0  0  0
    0.3650   -2.2310    1.8719 C   0  0  0  0  0  0  0  0  0  0  0  0
    0.4994   -1.9013    0.5182 C   0  0  0  0  0  0  0  0  0  0  0  0
    1.8929   -1.9040   -0.0736 C   0  0  0  0  0  0  0  0  0  0  0  0
    2.5828   -0.5541    0.1458 C   0  0  0  0  0  0  0  0  0  0  0  0
    3.8461   -0.5490   -0.4872 O   0  0  0  0  0  0  0  0  0  0  0  0
    5.0814   -0.7751    0.6729 P   0  0  2  0  0  5  0  0  0  0  0  0
    6.5770   -0.8542   -0.1161 O   0  0  0  0  0  0  0  0  0  0  0  0
    4.8600   -2.0814    1.4022 O   0  0  0  0  0  0  0  0  0  0  0  0
    5.0813    0.4898    1.8137 O   0  0  0  0  0  0  0  0  0  0  0  0
    5.3995    1.9420    0.9823 P   0  0  0  0  0  5  0  0  0  0  0  0
    6.9270    1.8930    0.2550 O   0  0  0  0  0  0  0  0  0  0  0  0
    5.3748    3.2156    2.0956 O   0  0  0  0  0  0  0  0  0  0  0  0
    4.3457    2.1993   -0.0718 O   0  0  0  0  0  0  0  0  0  0  0  0
   -0.6632   -1.5447   -0.2218 C   0  0  0  0  0  0  0  0  0  0  0  0
   -0.5382   -1.1409   -1.6797 C   0  0  0  0  0  0  0  0  0  0  0  0
   -4.5620    0.5809   -1.2366 C   0  0  0  0  0  0  0  0  0  0  0  0
   -5.3838   -0.3190   -1.9889 N   0  0  0  0  0  0  0  0  0  0  0  0
   -4.8341    1.9115   -1.2970 N   0  0  0  0  0  0  0  0  0  0  0  0
   -4.8892    4.5143   -1.6569 H   0  0  0  0  0  0  0  0  0  0  0  0
   -5.2076    4.5002    0.1245 H   0  0  0  0  0  0  0  0  0  0  0  0
   -3.5552    4.8907   -0.5017 H   0  0  0  0  0  0  0  0  0  0  0  0
   -1.9703    0.8064    0.9632 H   0  0  0  0  0  0  0  0  0  0  0  0
   -4.0130   -1.8813    0.1367 H   0  0  0  0  0  0  0  0  0  0  0  0
   -3.0934   -1.7943   -1.3683 H   0  0  0  0  0  0  0  0  0  0  0  0
   -2.9793   -1.9897    2.1962 H   0  0  0  0  0  0  0  0  0  0  0  0
   -0.9854   -2.5057    3.5162 H   0  0  0  0  0  0  0  0  0  0  0  0
    1.2358   -2.4752    2.4685 H   0  0  0  0  0  0  0  0  0  0  0  0
    1.8734   -2.1572   -1.1541 H   0  0  0  0  0  0  0  0  0  0  0  0
    2.4967   -2.7035    0.4068 H   0  0  0  0  0  0  0  0  0  0  0  0
    2.6102   -0.3073    1.2336 H   0  0  0  0  0  0  0  0  0  0  0  0
    1.9708    0.2431   -0.3252 H   0  0  0  0  0  0  0  0  0  0  0  0
    6.4522   -1.5333   -0.8261 H   0  0  0  0  0  0  0  0  0  0  0  0
    7.5569    1.7430    1.0044 H   0  0  0  0  0  0  0  0  0  0  0  0
    4.4917    3.1463    2.5390 H   0  0  0  0  0  0  0  0  0  0  0  0
   -0.5870   -2.0458   -2.3202 H   0  0  0  0  0  0  0  0  0  0  0  0
    0.4070   -0.6009   -1.8810 H   0  0  0  0  0  0  0  0  0  0  0  0
   -1.3335   -0.4343   -1.9855 H   0  0  0  0  0  0  0  0  0  0  0  0
   -5.2807   -1.3553   -1.9352 H   0  0  0  0  0  0  0  0  0  0  0  0
   -6.1469    0.0602   -2.5925 H   0  0  0  0  0  0  0  0  0  0  0  0
  1  2  1  0
  2  3  2  0
  3  4  1  0
  4  5  2  0
  5  6  1  0
  6  7  1  0
  7  8  2  0
  8  9  1  0
  9 10  2  0
 10 11  1  0
 11 12  1  0
 12 13  1  0
 13 14  1  0
 15 14  1  6
 15 16  1  0
 15 17  2  0
 15 18  1  0
 18 19  1  0
 19 20  1  0
 19 21  1  0
 19 22  2  0
 11 23  2  0
 23 24  1  0
  5 25  1  0
 25 26  1  0
 25 27  2  0
 27  2  1  0
 23  7  1  0
  1 28  1  0
  1 29  1  0
  1 30  1  0
  4 31  1  0
  6 32  1  0
  6 33  1  0
  8 34  1  0
  9 35  1  0
 10 36  1  0
 12 37  1  0
 12 38  1  0
 13 39  1  0
 13 40  1  0
 16 41  1  0
 20 42  1  0
 21 43  1  0
 24 44  1  0
 24 45  1  0
 24 46  1  0
 26 47  1  0
 26 48  1  0
M  CHG  1   7   1
M  END
$$$$
