
     RDKit          3D

 48 51  0  0  0  0  0  0  0  0999 V2000
   -5.4612   -0.0747    1.7888 C   0  0  0  0  0  0  0  0  0  0  0  0
   -4.1971   -0.5181    1.0490 C   0  0  0  0  0  0  0  0  0  0  0  0
   -3.5055    0.6827    0.3780 C   0  0  0  0  0  0  0  0  0  0  0  0
   -2.3722    0.2094   -0.4213 N   0  0  0  0  0  0  0  0  0  0  0  0
   -2.5994   -0.9018   -1.3495 C   0  0  0  0  0  0  0  0  0  0  0  0
   -3.3255   -2.0406   -0.6249 C   0  0  0  0  0  0  0  0  0  0  0  0
   -4.5342   -1.5526    0.0552 N   0  0  0  0  0  0  0  0  0  0  0  0
   -1.1388    0.9494   -0.4654 C   0  0  0  0  0  0  0  0  0  0  0  0
   -1.1353    2.3294   -0.7115 C   0  0  0  0  0  0  0  0  0  0  0  0
   -2.2952    2.9920   -0.9489 F   0  0  0  0  0  0  0  0  0  0  0  0
    0.0675    3.0349   -0.7389 C   0  0  0  0  0  0  0  0  0  0  0  0
    1.2935    2.3757   -0.5265 C   0  0  0  0  0  0  0  0  0  0  0  0
    2.5093    3.0842   -0.5414 C   0  0  0  0  0  0  0  0  0  0  0  0
    2.5079    4.3293   -0.7507 O   0  0  0  0  0  0  0  0  0  0  0  0
    3.7231    2.4043   -0.3205 C   0  0  0  0  0  0  0  0  0  0  0  0
    3.6839    1.0205   -0.0973 C   0  0  0  0  0  0  0  0  0  0  0  0
    2.5051    0.3317   -0.0903 N   0  0  0  0  0  0  0  0  0  0  0  0
    1.3065    0.9782   -0.2908 C   0  0  0  0  0  0  0  0  0  0  0  0
    0.0757    0.2843   -0.2534 C   0  0  0  0  0  0  0  0  0  0  0  0
    2.5745   -1.0912    0.1166 C   0  0  0  0  0  0  0  0  0  0  0  0
    2.8254   -1.6111    1.3970 C   0  0  0  0  0  0  0  0  0  0  0  0
    2.9958   -0.7764    2.4528 F   0  0  0  0  0  0  0  0  0  0  0  0
    2.8904   -2.9949    1.5907 C   0  0  0  0  0  0  0  0  0  0  0  0
    2.7088   -3.8640    0.5101 C   0  0  0  0  0  0  0  0  0  0  0  0
    2.7711   -5.2048    0.7008 F   0  0  0  0  0  0  0  0  0  0  0  0
    2.4634   -3.3504   -0.7671 C   0  0  0  0  0  0  0  0  0  0  0  0
    2.3986   -1.9681   -0.9653 C   0  0  0  0  0  0  0  0  0  0  0  0
    5.0367    3.1033   -0.3205 C   0  0  0  0  0  0  0  0  0  0  0  0
    6.2102    2.3868   -0.0972 O   0  0  0  0  0  0  0  0  0  0  0  0
    5.1099    4.3458   -0.5204 O   0  0  0  0  0  0  0  0  0  0  0  0
   -6.1904    0.3775    1.0828 H   0  0  0  0  0  0  0  0  0  0  0  0
   -5.9360   -0.9499    2.2810 H   0  0  0  0  0  0  0  0  0  0  0  0
   -5.2055    0.6720    2.5706 H   0  0  0  0  0  0  0  0  0  0  0  0
   -3.5028   -0.9511    1.8047 H   0  0  0  0  0  0  0  0  0  0  0  0
   -4.2211    1.2162   -0.2852 H   0  0  0  0  0  0  0  0  0  0  0  0
   -3.1562    1.3883    1.1643 H   0  0  0  0  0  0  0  0  0  0  0  0
   -1.6407   -1.2845   -1.7616 H   0  0  0  0  0  0  0  0  0  0  0  0
   -3.2195   -0.5447   -2.2000 H   0  0  0  0  0  0  0  0  0  0  0  0
   -3.6102   -2.8211   -1.3630 H   0  0  0  0  0  0  0  0  0  0  0  0
   -2.6406   -2.5124    0.1140 H   0  0  0  0  0  0  0  0  0  0  0  0
   -5.1809   -1.1480   -0.6636 H   0  0  0  0  0  0  0  0  0  0  0  0
    0.0350    4.1007   -0.9303 H   0  0  0  0  0  0  0  0  0  0  0  0
    4.6117    0.4820    0.0649 H   0  0  0  0  0  0  0  0  0  0  0  0
    0.0420   -0.7757   -0.0402 H   0  0  0  0  0  0  0  0  0  0  0  0
    3.0802   -3.3939    2.5789 H   0  0  0  0  0  0  0  0  0  0  0  0
    2.3235   -4.0225   -1.6039 H   0  0  0  0  0  0  0  0  0  0  0  0
    2.2078   -1.5764   -1.9565 H   0  0  0  0  0  0  0  0  0  0  0  0
    7.1110    2.8504   -0.0943 H   0  0  0  0  0  0  0  0  0  0  0  0
  1  2  1  0
  2  3  1  0
  3  4  1  0
  4  5  1  0
  5  6  1  0
  6  7  1  0
  4  8  1  0
  8  9  2  0
  9 10  1  0
  9 11  1  0
 11 12  2  0
 12 13  1  0
 13 14  2  0
 13 15  1  0
 15 16  2  0
 16 17  1  0
 17 18  1  0
 18 19  2  0
 17 20  1  0
 20 21  2  0
 21 22  1  0
 21 23  1  0
 23 24  2  0
 24 25  1  0
 24 26  1  0
 26 27  2  0
 15 28  1  0
 28 29  1  0
 28 30  2  0
  7  2  1  0
 19  8  1  0
 27 20  1  0
 18 12  1  0
  1 31  1  0
  1 32  1  0
  1 33  1  0
  2 34  1  0
  3 35  1  0
  3 36  1  0
  5 37  1  0
  5 38  1  0
  6 39  1  0
  6 40  1  0
  7 41  1  0
 11 42  1  0
 16 43  1  0
 19 44  1  0
 23 45  1  0
 26 46  1  0
 27 47  1  0
 29 48  1  0
M  END
$$$$
