
     RDKit          3D

 56 60  0  0  0  0  0  0  0  0999 V2000
    0.4321   -4.5426   -3.6135 O   0  0  0  0  0  0  0  0  0  0  0  0
    0.3529   -3.5198   -2.8828 C   0  0  0  0  0  0  0  0  0  0  0  0
    0.2197   -2.2318   -3.4731 N   0  0  0  0  0  0  0  0  0  0  0  0
    0.1417   -1.0526   -2.6687 C   0  0  0  0  0  0  0  0  0  0  0  0
    0.2086    0.0705   -3.2393 O   0  0  0  0  0  0  0  0  0  0  0  0
   -0.0424   -1.1209   -1.1464 C   0  0  0  0  0  0  0  0  0  0  0  0
   -1.4507   -0.7505   -0.7830 N   0  0  0  0  0  0  0  0  0  0  0  0
   -1.8771    0.5869   -1.2458 C   0  0  0  0  0  0  0  0  0  0  0  0
   -3.0677    1.0290   -0.4001 C   0  0  0  0  0  0  0  0  0  0  0  0
   -4.0510   -0.0559   -0.2664 N   0  0  0  0  0  0  0  0  0  0  0  0
   -3.9181   -1.2625   -1.0997 C   0  0  0  0  0  0  0  0  0  0  0  0
   -2.4614   -1.7816   -1.1387 C   0  0  0  0  0  0  0  0  0  0  0  0
   -5.2355    0.1672    0.5271 C   0  0  0  0  0  0  0  0  0  0  0  0
   -5.3474    1.2912    1.2896 N   0  0  0  0  0  0  0  0  0  0  0  0
   -6.4527    1.5244    2.0435 C   0  0  0  0  0  0  0  0  0  0  0  0
   -7.4991    0.6045    2.0453 C   0  0  0  0  0  0  0  0  0  0  0  0
   -7.3757   -0.5411    1.2620 C   0  0  0  0  0  0  0  0  0  0  0  0
   -6.2541   -0.7378    0.5218 N   0  0  0  0  0  0  0  0  0  0  0  0
    0.2654   -2.5171   -0.6058 C   0  0  0  0  0  0  0  0  0  0  0  0
    0.3261   -2.6962    0.6417 O   0  0  0  0  0  0  0  0  0  0  0  0
    0.4124   -3.6501   -1.4665 N   0  0  0  0  0  0  0  0  0  0  0  0
    0.9647   -0.1867   -0.4488 C   0  0  0  0  0  0  0  0  0  0  0  0
    2.2771   -0.0333   -0.9472 C   0  0  0  0  0  0  0  0  0  0  0  0
    3.2112    0.7591   -0.2752 C   0  0  0  0  0  0  0  0  0  0  0  0
    2.8739    1.3794    0.9379 C   0  0  0  0  0  0  0  0  0  0  0  0
    3.7788    2.1963    1.6316 O   0  0  0  0  0  0  0  0  0  0  0  0
    5.1719    2.0331    1.6507 C   0  0  0  0  0  0  0  0  0  0  0  0
    5.7747    0.7643    1.5592 C   0  0  0  0  0  0  0  0  0  0  0  0
    7.1673    0.6427    1.5992 C   0  0  0  0  0  0  0  0  0  0  0  0
    7.9658    1.7806    1.7426 C   0  0  0  0  0  0  0  0  0  0  0  0
    7.3723    3.0410    1.8538 C   0  0  0  0  0  0  0  0  0  0  0  0
    5.9799    3.1655    1.8143 C   0  0  0  0  0  0  0  0  0  0  0  0
    1.5878    1.2113    1.4557 C   0  0  0  0  0  0  0  0  0  0  0  0
    0.6513    0.4186    0.7878 C   0  0  0  0  0  0  0  0  0  0  0  0
    0.2345   -2.1425   -4.5142 H   0  0  0  0  0  0  0  0  0  0  0  0
   -1.0704    1.3421   -1.1371 H   0  0  0  0  0  0  0  0  0  0  0  0
   -2.1744    0.5583   -2.3184 H   0  0  0  0  0  0  0  0  0  0  0  0
   -2.6974    1.3122    0.6095 H   0  0  0  0  0  0  0  0  0  0  0  0
   -3.5461    1.9174   -0.8662 H   0  0  0  0  0  0  0  0  0  0  0  0
   -4.2469   -1.0137   -2.1322 H   0  0  0  0  0  0  0  0  0  0  0  0
   -4.5727   -2.0821   -0.7330 H   0  0  0  0  0  0  0  0  0  0  0  0
   -2.3832   -2.6183   -0.4115 H   0  0  0  0  0  0  0  0  0  0  0  0
   -2.2665   -2.1973   -2.1510 H   0  0  0  0  0  0  0  0  0  0  0  0
   -6.5180    2.4240    2.6407 H   0  0  0  0  0  0  0  0  0  0  0  0
   -8.3866    0.7758    2.6407 H   0  0  0  0  0  0  0  0  0  0  0  0
   -8.1707   -1.2745    1.2414 H   0  0  0  0  0  0  0  0  0  0  0  0
    0.5579   -4.5960   -1.0468 H   0  0  0  0  0  0  0  0  0  0  0  0
    2.5858   -0.5283   -1.8588 H   0  0  0  0  0  0  0  0  0  0  0  0
    4.1938    0.8931   -0.7080 H   0  0  0  0  0  0  0  0  0  0  0  0
    5.1705   -0.1296    1.4770 H   0  0  0  0  0  0  0  0  0  0  0  0
    7.6270   -0.3345    1.5265 H   0  0  0  0  0  0  0  0  0  0  0  0
    9.0435    1.6850    1.7748 H   0  0  0  0  0  0  0  0  0  0  0  0
    7.9908    3.9212    1.9724 H   0  0  0  0  0  0  0  0  0  0  0  0
    5.5271    4.1448    1.9035 H   0  0  0  0  0  0  0  0  0  0  0  0
    1.3183    1.6816    2.3929 H   0  0  0  0  0  0  0  0  0  0  0  0
   -0.3189    0.2766    1.2453 H   0  0  0  0  0  0  0  0  0  0  0  0
  1  2  2  0
  2  3  1  0
  3  4  1  0
  4  5  2  0
  4  6  1  0
  6  7  1  0
  7  8  1  0
  8  9  1  0
  9 10  1  0
 10 11  1  0
 11 12  1  0
 10 13  1  0
 13 14  2  0
 14 15  1  0
 15 16  2  0
 16 17  1  0
 17 18  2  0
  6 19  1  0
 19 20  2  0
 19 21  1  0
  6 22  1  0
 22 23  2  0
 23 24  1  0
 24 25  2  0
 25 26  1  0
 26 27  1  0
 27 28  2  0
 28 29  1  0
 29 30  2  0
 30 31  1  0
 31 32  2  0
 25 33  1  0
 33 34  2  0
 21  2  1  0
 34 22  1  0
 12  7  1  0
 18 13  1  0
 32 27  1  0
  3 35  1  0
  8 36  1  0
  8 37  1  0
  9 38  1  0
  9 39  1  0
 11 40  1  0
 11 41  1  0
 12 42  1  0
 12 43  1  0
 15 44  1  0
 16 45  1  0
 17 46  1  0
 21 47  1  0
 23 48  1  0
 24 49  1  0
 28 50  1  0
 29 51  1  0
 30 52  1  0
 31 53  1  0
 32 54  1  0
 33 55  1  0
 34 56  1  0
M  END
$$$$
