
     RDKit          3D

 46 49  0  0  0  0  0  0  0  0999 V2000
    2.4420   -3.0397   -0.6935 N   0  0  0  0  0  0  0  0  0  0  0  0
    3.4420   -2.0810   -0.3476 C   0  0  0  0  0  0  0  0  0  0  0  0
    4.3614   -2.4009    0.4520 O   0  0  0  0  0  0  0  0  0  0  0  0
    3.4483   -0.7429   -0.9681 C   0  0  0  0  0  0  0  0  0  0  0  0
    2.3827    0.1779   -0.8007 C   0  0  0  0  0  0  0  0  0  0  0  0
    1.2205   -0.0906    0.1342 C   0  0  0  0  0  0  0  0  0  0  0  0
   -0.0383    0.7070   -0.2727 C   0  0  2  0  0  0  0  0  0  0  0  0
    0.3743    2.2002   -0.3187 C   0  0  0  0  0  0  0  0  0  0  0  0
    1.4354    2.3817   -1.2554 O   0  0  0  0  0  0  0  0  0  0  0  0
    2.4645    1.4458   -1.4173 C   0  0  0  0  0  0  0  0  0  0  0  0
    3.5668    1.7752   -2.2115 C   0  0  0  0  0  0  0  0  0  0  0  0
    3.6316    2.9875   -2.8164 F   0  0  0  0  0  0  0  0  0  0  0  0
    4.6126    0.8667   -2.3699 C   0  0  0  0  0  0  0  0  0  0  0  0
    4.5588   -0.3801   -1.7462 C   0  0  0  0  0  0  0  0  0  0  0  0
   -1.1549    0.3497    0.6602 N   0  0  0  0  0  0  0  0  0  0  0  0
   -2.0623   -0.7617    0.2175 C   0  0  0  0  0  0  0  0  0  0  0  0
   -2.0581   -1.9064    1.2342 C   0  0  0  0  0  0  0  0  0  0  0  0
   -1.5883   -2.8804    0.1675 C   0  0  0  0  0  0  0  0  0  0  0  0
   -1.5790   -1.7604   -0.8581 C   0  0  0  0  0  0  0  0  0  0  0  0
   -1.8438    1.5045    1.3178 C   0  0  0  0  0  0  0  0  0  0  0  0
   -2.8511    2.2421    0.4315 C   0  0  0  0  0  0  0  0  0  0  0  0
   -3.9669    1.8887    1.4079 C   0  0  0  0  0  0  0  0  0  0  0  0
   -2.9690    1.1622    2.3027 C   0  0  0  0  0  0  0  0  0  0  0  0
    2.4338   -3.9800   -0.2397 H   0  0  0  0  0  0  0  0  0  0  0  0
    1.7313   -2.8268   -1.4282 H   0  0  0  0  0  0  0  0  0  0  0  0
    0.9825   -1.1662    0.1886 H   0  0  0  0  0  0  0  0  0  0  0  0
    1.5259    0.2083    1.1607 H   0  0  0  0  0  0  0  0  0  0  0  0
   -0.3272    0.4751   -1.3196 H   0  0  0  0  0  0  0  0  0  0  0  0
    0.7341    2.5409    0.6756 H   0  0  0  0  0  0  0  0  0  0  0  0
   -0.4717    2.8387   -0.6403 H   0  0  0  0  0  0  0  0  0  0  0  0
    5.4700    1.1293   -2.9763 H   0  0  0  0  0  0  0  0  0  0  0  0
    5.3817   -1.0718   -1.8818 H   0  0  0  0  0  0  0  0  0  0  0  0
   -3.0962   -0.4281   -0.0137 H   0  0  0  0  0  0  0  0  0  0  0  0
   -1.3063   -1.7785    2.0444 H   0  0  0  0  0  0  0  0  0  0  0  0
   -3.0767   -2.1555    1.6047 H   0  0  0  0  0  0  0  0  0  0  0  0
   -2.3439   -3.6638   -0.0603 H   0  0  0  0  0  0  0  0  0  0  0  0
   -0.5714   -3.2799    0.3757 H   0  0  0  0  0  0  0  0  0  0  0  0
   -0.5746   -1.6472   -1.3027 H   0  0  0  0  0  0  0  0  0  0  0  0
   -2.3519   -1.9223   -1.6413 H   0  0  0  0  0  0  0  0  0  0  0  0
   -1.1307    2.1895    1.8237 H   0  0  0  0  0  0  0  0  0  0  0  0
   -2.6598    3.3370    0.4005 H   0  0  0  0  0  0  0  0  0  0  0  0
   -2.9932    1.7951   -0.5758 H   0  0  0  0  0  0  0  0  0  0  0  0
   -4.7209    1.2030    0.9636 H   0  0  0  0  0  0  0  0  0  0  0  0
   -4.4064    2.7851    1.8974 H   0  0  0  0  0  0  0  0  0  0  0  0
   -3.2158    0.0930    2.4301 H   0  0  0  0  0  0  0  0  0  0  0  0
   -2.8418    1.6802    3.2788 H   0  0  0  0  0  0  0  0  0  0  0  0
  1  2  1  0
  2  3  2  0
  2  4  1  0
  4  5  2  0
  5  6  1  0
  6  7  1  0
  7  8  1  0
  8  9  1  0
  9 10  1  0
 10 11  2  0
 11 12  1  0
 11 13  1  0
 13 14  2  0
  7 15  1  0
 15 16  1  0
 16 17  1  0
 17 18  1  0
 18 19  1  0
 15 20  1  0
 20 21  1  0
 21 22  1  0
 22 23  1  0
 14  4  1  0
 19 16  1  0
 23 20  1  0
 10  5  1  0
  1 24  1  0
  1 25  1  0
  6 26  1  0
  6 27  1  0
  7 28  1  6
  8 29  1  0
  8 30  1  0
 13 31  1  0
 14 32  1  0
 16 33  1  0
 17 34  1  0
 17 35  1  0
 18 36  1  0
 18 37  1  0
 19 38  1  0
 19 39  1  0
 20 40  1  0
 21 41  1  0
 21 42  1  0
 22 43  1  0
 22 44  1  0
 23 45  1  0
 23 46  1  0
M  END
$$$$
