
     RDKit          3D

 32 33  0  0  0  0  0  0  0  0999 V2000
   -3.9499   -0.7603    1.0193 C   0  0  0  0  0  0  0  0  0  0  0  0
   -2.9790   -0.0214    0.1457 C   0  0  0  0  0  0  0  0  0  0  0  0
   -3.4272    0.9755   -0.7193 C   0  0  0  0  0  0  0  0  0  0  0  0
   -2.5052    1.7039   -1.4704 C   0  0  0  0  0  0  0  0  0  0  0  0
   -2.9204    2.6199   -2.2311 O   0  0  0  0  0  0  0  0  0  0  0  0
   -1.1657    1.4480   -1.3739 N   0  0  0  0  0  0  0  0  0  0  0  0
   -0.3180    2.2823   -2.0827 O   0  0  0  0  0  0  0  0  0  0  0  0
   -0.6956    0.4253   -0.5741 C   0  0  0  0  0  0  0  0  0  0  0  0
   -1.6093   -0.2787    0.2377 C   0  0  0  0  0  0  0  0  0  0  0  0
    0.7926    0.0811   -0.5122 C   0  0  0  0  0  0  0  0  0  0  0  0
    1.4934    0.8717    0.6199 C   0  0  0  0  0  0  0  0  0  0  0  0
    2.8089    0.2191    1.0977 C   0  0  0  0  0  0  0  0  0  0  0  0
    3.4894   -0.5853   -0.0170 C   0  0  0  0  0  0  0  0  0  0  0  0
    2.5875   -1.7244   -0.5397 C   0  0  0  0  0  0  0  0  0  0  0  0
    1.0807   -1.4315   -0.3828 C   0  0  0  0  0  0  0  0  0  0  0  0
   -4.0500   -0.2307    1.9897 H   0  0  0  0  0  0  0  0  0  0  0  0
   -4.9479   -0.8213    0.5353 H   0  0  0  0  0  0  0  0  0  0  0  0
   -3.5966   -1.7968    1.2067 H   0  0  0  0  0  0  0  0  0  0  0  0
   -4.4848    1.2013   -0.7942 H   0  0  0  0  0  0  0  0  0  0  0  0
    0.6764    2.3438   -1.9161 H   0  0  0  0  0  0  0  0  0  0  0  0
   -1.2701   -1.0271    0.9394 H   0  0  0  0  0  0  0  0  0  0  0  0
    1.2572    0.3589   -1.4805 H   0  0  0  0  0  0  0  0  0  0  0  0
    1.7086    1.9004    0.2582 H   0  0  0  0  0  0  0  0  0  0  0  0
    0.8172    0.9676    1.4981 H   0  0  0  0  0  0  0  0  0  0  0  0
    2.5959   -0.4618    1.9511 H   0  0  0  0  0  0  0  0  0  0  0  0
    3.5022    1.0068    1.4641 H   0  0  0  0  0  0  0  0  0  0  0  0
    4.4436   -1.0113    0.3615 H   0  0  0  0  0  0  0  0  0  0  0  0
    3.7399    0.1035   -0.8538 H   0  0  0  0  0  0  0  0  0  0  0  0
    2.8269   -2.6643    0.0042 H   0  0  0  0  0  0  0  0  0  0  0  0
    2.8191   -1.8973   -1.6134 H   0  0  0  0  0  0  0  0  0  0  0  0
    0.7672   -1.7989    0.6175 H   0  0  0  0  0  0  0  0  0  0  0  0
    0.5129   -1.9981   -1.1529 H   0  0  0  0  0  0  0  0  0  0  0  0
  1  2  1  0
  2  3  2  0
  3  4  1  0
  4  5  2  0
  4  6  1  0
  6  7  1  0
  6  8  1  0
  8  9  2  0
  8 10  1  0
 10 11  1  0
 11 12  1  0
 12 13  1  0
 13 14  1  0
 14 15  1  0
  9  2  1  0
 15 10  1  0
  1 16  1  0
  1 17  1  0
  1 18  1  0
  3 19  1  0
  7 20  1  0
  9 21  1  0
 10 22  1  0
 11 23  1  0
 11 24  1  0
 12 25  1  0
 12 26  1  0
 13 27  1  0
 13 28  1  0
 14 29  1  0
 14 30  1  0
 15 31  1  0
 15 32  1  0
M  END
$$$$
