
     RDKit          3D

 32 32  0  0  0  0  0  0  0  0999 V2000
   -4.9527   -0.2855    1.3432 C   0  0  0  0  0  0  0  0  0  0  0  0
   -3.9527    0.3730    0.5029 N   0  0  0  0  0  0  0  0  0  0  0  0
   -4.1776    1.7507    0.0613 C   0  0  0  0  0  0  0  0  0  0  0  0
   -2.7241   -0.3026    0.1886 C   0  0  0  0  0  0  0  0  0  0  0  0
   -1.8232    0.2725   -0.5487 N   0  0  0  0  0  0  0  0  0  0  0  0
   -0.5806   -0.3479   -0.9069 C   0  0  0  0  0  0  0  0  0  0  0  0
   -0.5506   -1.5733   -1.6014 C   0  0  0  0  0  0  0  0  0  0  0  0
   -2.3041   -2.5498   -2.2929 I   0  0  0  0  0  0  0  0  0  0  0  0
    0.6729   -2.1615   -1.9166 C   0  0  0  0  0  0  0  0  0  0  0  0
    1.8761   -1.5401   -1.5800 C   0  0  0  0  0  0  0  0  0  0  0  0
    3.6564   -2.5861   -2.0882 I   0  0  0  0  0  0  0  0  0  0  0  0
    1.8688   -0.2805   -0.9373 C   0  0  0  0  0  0  0  0  0  0  0  0
    3.1730    0.3979   -0.5736 C   0  0  0  0  0  0  0  0  0  0  0  0
    3.6380   -0.0297    0.8217 C   0  0  0  0  0  0  0  0  0  0  0  0
    4.9194    0.6535    1.1787 C   0  0  0  0  0  0  0  0  0  0  0  0
    4.8911    1.9043    1.7873 O   0  0  0  0  0  0  0  0  0  0  0  0
    6.0228    0.1165    0.8921 O   0  0  0  0  0  0  0  0  0  0  0  0
    0.6255    0.3071   -0.5913 C   0  0  0  0  0  0  0  0  0  0  0  0
    0.5086    2.1671    0.4577 I   0  0  0  0  0  0  0  0  0  0  0  0
   -4.7155   -1.3616    1.4857 H   0  0  0  0  0  0  0  0  0  0  0  0
   -5.9524   -0.2134    0.8648 H   0  0  0  0  0  0  0  0  0  0  0  0
   -4.9866    0.2080    2.3371 H   0  0  0  0  0  0  0  0  0  0  0  0
   -4.1752    1.7933   -1.0483 H   0  0  0  0  0  0  0  0  0  0  0  0
   -5.1551    2.1326    0.4267 H   0  0  0  0  0  0  0  0  0  0  0  0
   -3.3744    2.4081    0.4566 H   0  0  0  0  0  0  0  0  0  0  0  0
   -2.5429   -1.2959    0.5847 H   0  0  0  0  0  0  0  0  0  0  0  0
    0.6892   -3.1096   -2.4386 H   0  0  0  0  0  0  0  0  0  0  0  0
    3.9580    0.1609   -1.3212 H   0  0  0  0  0  0  0  0  0  0  0  0
    3.0663    1.5013   -0.6171 H   0  0  0  0  0  0  0  0  0  0  0  0
    2.8659    0.2336    1.5763 H   0  0  0  0  0  0  0  0  0  0  0  0
    3.7855   -1.1312    0.8522 H   0  0  0  0  0  0  0  0  0  0  0  0
    5.7501    2.3881    2.0203 H   0  0  0  0  0  0  0  0  0  0  0  0
  1  2  1  0
  2  3  1  0
  2  4  1  0
  4  5  2  3
  5  6  1  0
  6  7  2  0
  7  8  1  0
  7  9  1  0
  9 10  2  0
 10 11  1  0
 10 12  1  0
 12 13  1  0
 13 14  1  0
 14 15  1  0
 15 16  1  0
 15 17  2  0
 12 18  2  0
 18 19  1  0
 18  6  1  0
  1 20  1  0
  1 21  1  0
  1 22  1  0
  3 23  1  0
  3 24  1  0
  3 25  1  0
  4 26  1  0
  9 27  1  0
 13 28  1  0
 13 29  1  0
 14 30  1  0
 14 31  1  0
 16 32  1  0
M  END
$$$$
