
     RDKit          3D

 80 86  0  0  0  0  0  0  0  0999 V2000
   -7.0540   -2.0528    2.7606 C   0  0  0  0  0  0  0  0  0  0  0  0
   -7.2341   -2.0564    1.2449 C   0  0  0  0  0  0  0  0  0  0  0  0
   -6.9613   -0.7096    0.6923 N   0  0  0  0  0  0  0  0  0  0  0  0
   -7.7712   -0.4558   -0.5217 C   0  0  0  0  0  0  0  0  0  0  0  0
   -9.1360    0.1090   -0.1380 C   0  0  0  0  0  0  0  0  0  0  0  0
   -5.5174   -0.5263    0.4180 C   0  0  0  0  0  0  0  0  0  0  0  0
   -5.1258    0.9408    0.6162 C   0  0  0  0  0  0  0  0  0  0  0  0
   -3.6956    1.1204    0.3788 N   0  0  0  0  0  0  0  0  0  0  0  0
   -3.0613    1.2406   -0.8903 C   0  0  0  0  0  0  0  0  0  0  0  0
   -3.6996    1.3381   -1.9684 O   0  0  0  0  0  0  0  0  0  0  0  0
   -1.6108    1.0682   -0.7497 C   0  0  0  0  0  0  0  0  0  0  0  0
   -1.3629    0.7130    0.5779 C   0  0  0  0  0  0  0  0  0  0  0  0
   -2.6478    0.7980    1.2882 C   0  0  0  0  0  0  0  0  0  0  0  0
   -2.8198    0.7436    2.5318 O   0  0  0  0  0  0  0  0  0  0  0  0
   -0.0460    0.4092    0.9933 C   0  0  0  0  0  0  0  0  0  0  0  0
    1.0334    0.5481    0.1168 C   0  0  0  0  0  0  0  0  0  0  0  0
    2.2073    0.1736    0.7208 N   0  0  0  0  0  0  0  0  0  0  0  0
    3.4968   -0.0622    0.0407 C   0  0  2  0  0  0  0  0  0  0  0  0
    4.0849   -1.2614    0.5140 O   0  0  0  0  0  0  0  0  0  0  0  0
    5.2497   -1.5925   -0.2287 C   0  0  2  0  0  0  0  0  0  0  0  0
    5.7510   -2.9633    0.2487 C   0  0  0  0  0  0  0  0  0  0  0  0
    4.7441   -3.9292    0.1084 O   0  0  0  0  0  0  0  0  0  0  0  0
    6.3475   -0.5162   -0.0428 C   0  0  1  0  0  0  0  0  0  0  0  0
    7.4602   -0.8380   -0.8643 O   0  0  0  0  0  0  0  0  0  0  0  0
    8.6544   -0.8425   -0.1137 C   0  0  0  0  0  0  0  0  0  0  0  0
    5.7929    0.8564   -0.4739 C   0  0  2  0  0  0  0  0  0  0  0  0
    6.7238    1.8787   -0.2180 O   0  0  0  0  0  0  0  0  0  0  0  0
    4.4473    1.1450    0.2358 C   0  0  1  0  0  0  0  0  0  0  0  0
    3.8387    2.3408   -0.1981 O   0  0  0  0  0  0  0  0  0  0  0  0
    1.8590   -0.1609    2.0073 C   0  0  0  0  0  0  0  0  0  0  0  0
    2.6702   -0.5921    3.0979 C   0  0  0  0  0  0  0  0  0  0  0  0
    4.4258   -0.5360    3.1785 Cl  0  0  0  0  0  0  0  0  0  0  0  0
    2.0326   -1.0096    4.2786 C   0  0  0  0  0  0  0  0  0  0  0  0
    0.6378   -1.0072    4.3867 C   0  0  0  0  0  0  0  0  0  0  0  0
   -0.1504   -0.5422    3.3333 C   0  0  0  0  0  0  0  0  0  0  0  0
    0.4803   -0.0759    2.1757 C   0  0  0  0  0  0  0  0  0  0  0  0
    0.7805    0.9989   -1.2137 C   0  0  0  0  0  0  0  0  0  0  0  0
   -0.5330    1.2440   -1.6382 C   0  0  0  0  0  0  0  0  0  0  0  0
   -0.4345    1.7373   -2.9350 C   0  0  0  0  0  0  0  0  0  0  0  0
    0.9142    1.7611   -3.2290 C   0  0  0  0  0  0  0  0  0  0  0  0
    1.6583    1.3284   -2.1932 N   0  0  0  0  0  0  0  0  0  0  0  0
    1.3927    2.2465   -4.4512 C   0  0  0  0  0  0  0  0  0  0  0  0
    3.1097    2.2844   -4.8205 Cl  0  0  0  0  0  0  0  0  0  0  0  0
    0.4584    2.7164   -5.3879 C   0  0  0  0  0  0  0  0  0  0  0  0
   -0.9161    2.7133   -5.0847 C   0  0  0  0  0  0  0  0  0  0  0  0
   -1.3745    2.2327   -3.8467 C   0  0  0  0  0  0  0  0  0  0  0  0
   -7.3107   -3.0530    3.1688 H   0  0  0  0  0  0  0  0  0  0  0  0
   -6.0048   -1.8194    3.0358 H   0  0  0  0  0  0  0  0  0  0  0  0
   -7.7257   -1.2965    3.2195 H   0  0  0  0  0  0  0  0  0  0  0  0
   -6.5743   -2.8263    0.7838 H   0  0  0  0  0  0  0  0  0  0  0  0
   -8.2824   -2.3712    1.0460 H   0  0  0  0  0  0  0  0  0  0  0  0
   -7.2862    0.2956   -1.1836 H   0  0  0  0  0  0  0  0  0  0  0  0
   -7.8981   -1.3821   -1.1272 H   0  0  0  0  0  0  0  0  0  0  0  0
   -9.7127   -0.6220    0.4653 H   0  0  0  0  0  0  0  0  0  0  0  0
   -9.7147    0.3419   -1.0567 H   0  0  0  0  0  0  0  0  0  0  0  0
   -9.0072    1.0428    0.4495 H   0  0  0  0  0  0  0  0  0  0  0  0
   -4.8944   -1.1297    1.1151 H   0  0  0  0  0  0  0  0  0  0  0  0
   -5.2563   -0.8603   -0.6124 H   0  0  0  0  0  0  0  0  0  0  0  0
   -5.6970    1.5942   -0.0762 H   0  0  0  0  0  0  0  0  0  0  0  0
   -5.3709    1.2527    1.6545 H   0  0  0  0  0  0  0  0  0  0  0  0
    3.2971   -0.2291   -1.0313 H   0  0  0  0  0  0  0  0  0  0  0  0
    5.0063   -1.6901   -1.3131 H   0  0  0  0  0  0  0  0  0  0  0  0
    6.0331   -2.9036    1.3218 H   0  0  0  0  0  0  0  0  0  0  0  0
    6.6546   -3.2724   -0.3244 H   0  0  0  0  0  0  0  0  0  0  0  0
    4.6897   -4.1443   -0.8593 H   0  0  0  0  0  0  0  0  0  0  0  0
    6.5894   -0.4692    1.0490 H   0  0  0  0  0  0  0  0  0  0  0  0
    8.6280   -1.6338    0.6678 H   0  0  0  0  0  0  0  0  0  0  0  0
    8.8434    0.1525    0.3460 H   0  0  0  0  0  0  0  0  0  0  0  0
    9.5005   -1.0674   -0.7947 H   0  0  0  0  0  0  0  0  0  0  0  0
    5.6149    0.8253   -1.5726 H   0  0  0  0  0  0  0  0  0  0  0  0
    6.8807    1.9054    0.7622 H   0  0  0  0  0  0  0  0  0  0  0  0
    4.6501    1.2755    1.3143 H   0  0  0  0  0  0  0  0  0  0  0  0
    4.2346    2.6242   -1.0623 H   0  0  0  0  0  0  0  0  0  0  0  0
    2.6216   -1.3423    5.1243 H   0  0  0  0  0  0  0  0  0  0  0  0
    0.1678   -1.3671    5.2930 H   0  0  0  0  0  0  0  0  0  0  0  0
   -1.2155   -0.6150    3.4261 H   0  0  0  0  0  0  0  0  0  0  0  0
    2.6945    1.3504   -2.1820 H   0  0  0  0  0  0  0  0  0  0  0  0
    0.7941    3.0974   -6.3439 H   0  0  0  0  0  0  0  0  0  0  0  0
   -1.6248    3.0971   -5.8071 H   0  0  0  0  0  0  0  0  0  0  0  0
   -2.4236    2.2837   -3.6332 H   0  0  0  0  0  0  0  0  0  0  0  0
  1  2  1  0
  2  3  1  0
  3  4  1  0
  4  5  1  0
  3  6  1  0
  6  7  1  0
  7  8  1  0
  8  9  1  0
  9 10  2  0
  9 11  1  0
 11 12  2  0
 12 13  1  0
 13 14  2  0
 12 15  1  0
 15 16  2  0
 16 17  1  0
 17 18  1  0
 18 19  1  0
 19 20  1  0
 20 21  1  0
 21 22  1  0
 20 23  1  0
 23 24  1  0
 24 25  1  0
 23 26  1  0
 26 27  1  0
 26 28  1  0
 28 29  1  0
 17 30  1  0
 30 31  2  0
 31 32  1  0
 31 33  1  0
 33 34  2  0
 34 35  1  0
 35 36  2  0
 16 37  1  0
 37 38  2  0
 38 39  1  0
 39 40  2  0
 40 41  1  0
 40 42  1  0
 42 43  1  0
 42 44  2  0
 44 45  1  0
 45 46  2  0
 13  8  1  0
 36 15  1  0
 41 37  1  0
 38 11  1  0
 46 39  1  0
 28 18  1  0
 36 30  1  0
  1 47  1  0
  1 48  1  0
  1 49  1  0
  2 50  1  0
  2 51  1  0
  4 52  1  0
  4 53  1  0
  5 54  1  0
  5 55  1  0
  5 56  1  0
  6 57  1  0
  6 58  1  0
  7 59  1  0
  7 60  1  0
 18 61  1  6
 20 62  1  6
 21 63  1  0
 21 64  1  0
 22 65  1  0
 23 66  1  1
 25 67  1  0
 25 68  1  0
 25 69  1  0
 26 70  1  6
 27 71  1  0
 28 72  1  1
 29 73  1  0
 33 74  1  0
 34 75  1  0
 35 76  1  0
 41 77  1  0
 44 78  1  0
 45 79  1  0
 46 80  1  0
M  END
$$$$
