
     RDKit          3D

113119  0  0  0  0  0  0  0  0999 V2000
   -3.5556   -1.4442   -0.2850 C   0  0  1  0  0  0  0  0  0  0  0  0
   -2.6694   -0.2863    0.4336 C   0  0  2  0  0  0  0  0  0  0  0  0
   -3.4516    0.9005    0.5983 O   0  0  0  0  0  0  0  0  0  0  0  0
   -3.1870    1.9013    1.5420 C   0  0  0  0  0  0  0  0  0  0  0  0
   -2.2583    1.7546    2.3831 O   0  0  0  0  0  0  0  0  0  0  0  0
   -4.0252    3.1176    1.5669 C   0  0  0  0  0  0  0  0  0  0  0  0
   -5.1237    3.2383    0.6966 C   0  0  0  0  0  0  0  0  0  0  0  0
   -5.9227    4.3853    0.7216 C   0  0  0  0  0  0  0  0  0  0  0  0
   -5.6343    5.4212    1.6129 C   0  0  0  0  0  0  0  0  0  0  0  0
   -4.5465    5.3118    2.4822 C   0  0  0  0  0  0  0  0  0  0  0  0
   -3.7444    4.1666    2.4620 C   0  0  0  0  0  0  0  0  0  0  0  0
   -1.3441    0.0282   -0.2800 C   0  0  2  0  0  0  0  0  0  0  0  0
   -0.8531   -1.2728   -0.5114 O   0  0  0  0  0  0  0  0  0  0  0  0
   -0.1083    0.6471    0.4207 C   0  0  0  0  0  0  0  0  0  0  0  0
    1.1229    0.4932   -0.5917 C   0  0  2  0  0  0  0  0  0  0  0  0
    2.0091    1.6087   -0.5097 O   0  0  0  0  0  0  0  0  0  0  0  0
    2.7372    1.9419    0.6384 C   0  0  0  0  0  0  0  0  0  0  0  0
    2.5724    1.2999    1.7115 O   0  0  0  0  0  0  0  0  0  0  0  0
    3.7685    3.0400    0.5761 C   0  0  2  0  0  0  0  0  0  0  0  0
    3.4361    3.9811   -0.4156 O   0  0  0  0  0  0  0  0  0  0  0  0
    5.2169    2.5081    0.3814 C   0  0  1  0  0  0  0  0  0  0  0  0
    5.7139    1.8673    1.6069 N   0  0  0  0  0  0  0  0  0  0  0  0
    7.0920    1.4885    1.7606 C   0  0  0  0  0  0  0  0  0  0  0  0
    7.9529    1.9276    0.9493 O   0  0  0  0  0  0  0  0  0  0  0  0
    7.5192    0.5947    2.8625 C   0  0  0  0  0  0  0  0  0  0  0  0
    8.8535    0.6139    3.3097 C   0  0  0  0  0  0  0  0  0  0  0  0
    9.2668   -0.2327    4.3430 C   0  0  0  0  0  0  0  0  0  0  0  0
    8.3573   -1.1119    4.9346 C   0  0  0  0  0  0  0  0  0  0  0  0
    7.0337   -1.1497    4.4908 C   0  0  0  0  0  0  0  0  0  0  0  0
    6.6145   -0.3047    3.4585 C   0  0  0  0  0  0  0  0  0  0  0  0
    5.3398    1.5593   -0.8018 C   0  0  0  0  0  0  0  0  0  0  0  0
    5.7502    2.0467   -2.0554 C   0  0  0  0  0  0  0  0  0  0  0  0
    5.8675    1.1816   -3.1476 C   0  0  0  0  0  0  0  0  0  0  0  0
    5.5772   -0.1769   -3.0006 C   0  0  0  0  0  0  0  0  0  0  0  0
    5.1617   -0.6721   -1.7626 C   0  0  0  0  0  0  0  0  0  0  0  0
    5.0376    0.1893   -0.6692 C   0  0  0  0  0  0  0  0  0  0  0  0
    0.7467    0.2252   -2.1025 C   0  0  0  0  0  0  0  0  0  0  0  0
    1.8565   -0.2418   -3.0062 C   0  0  0  0  0  0  0  0  0  0  0  0
   -0.5771    0.1803   -2.5211 C   0  0  0  0  0  0  0  0  0  0  0  0
   -1.1243   -1.0854   -3.2566 C   0  0  1  0  0  0  0  0  0  0  0  0
   -0.2071   -2.1754   -3.1643 O   0  0  0  0  0  0  0  0  0  0  0  0
   -0.1994   -3.2577   -4.0513 C   0  0  0  0  0  0  0  0  0  0  0  0
    0.8051   -4.3431   -3.8707 C   0  0  0  0  0  0  0  0  0  0  0  0
   -1.0074   -3.3079   -5.0180 O   0  0  0  0  0  0  0  0  0  0  0  0
   -2.5684   -1.5715   -2.8735 C   0  0  0  0  0  0  0  0  0  0  0  0
   -3.4071   -1.2968   -3.7244 O   0  0  0  0  0  0  0  0  0  0  0  0
   -3.0866   -2.3715   -1.5859 C   0  0  1  0  0  0  0  0  0  0  0  0
   -2.0983   -3.5606   -1.2809 C   0  0  0  0  0  0  0  0  0  0  0  0
   -4.4352   -3.0838   -2.0216 C   0  0  1  0  0  0  0  0  0  0  0  0
   -4.3350   -3.7058   -3.2886 O   0  0  0  0  0  0  0  0  0  0  0  0
   -4.9769   -4.0783   -0.9765 C   0  0  0  0  0  0  0  0  0  0  0  0
   -5.0641   -3.5245    0.4544 C   0  0  1  0  0  0  0  0  0  0  0  0
   -4.2555   -4.2650    1.3407 O   0  0  0  0  0  0  0  0  0  0  0  0
   -3.6127   -3.0954    1.7881 C   0  0  0  0  0  0  0  0  0  0  0  0
   -4.3851   -2.2056    0.8226 C   0  0  1  0  0  0  0  0  0  0  0  0
   -5.3683   -1.3621    1.4536 O   0  0  0  0  0  0  0  0  0  0  0  0
   -5.1819   -0.5230    2.5623 C   0  0  0  0  0  0  0  0  0  0  0  0
   -6.2823    0.3984    2.9644 C   0  0  0  0  0  0  0  0  0  0  0  0
   -4.1274   -0.5625    3.2505 O   0  0  0  0  0  0  0  0  0  0  0  0
   -1.5246    0.9222   -1.6156 C   0  0  0  0  0  0  0  0  0  0  0  0
   -2.9563    1.1716   -2.2204 C   0  0  0  0  0  0  0  0  0  0  0  0
   -1.0560    2.4361   -1.5211 C   0  0  0  0  0  0  0  0  0  0  0  0
   -4.3904   -0.8621   -0.7110 H   0  0  0  0  0  0  0  0  0  0  0  0
   -2.3896   -0.6567    1.4427 H   0  0  0  0  0  0  0  0  0  0  0  0
   -5.3707    2.4458    0.0014 H   0  0  0  0  0  0  0  0  0  0  0  0
   -6.7672    4.4702    0.0499 H   0  0  0  0  0  0  0  0  0  0  0  0
   -6.2542    6.3082    1.6306 H   0  0  0  0  0  0  0  0  0  0  0  0
   -4.3243    6.1150    3.1728 H   0  0  0  0  0  0  0  0  0  0  0  0
   -2.9061    4.1033    3.1445 H   0  0  0  0  0  0  0  0  0  0  0  0
   -0.6629   -1.7350    0.3528 H   0  0  0  0  0  0  0  0  0  0  0  0
    0.1176    0.1060    1.3663 H   0  0  0  0  0  0  0  0  0  0  0  0
   -0.2652    1.6973    0.7364 H   0  0  0  0  0  0  0  0  0  0  0  0
    1.6884   -0.4080   -0.2635 H   0  0  0  0  0  0  0  0  0  0  0  0
    3.7365    3.5823    1.5465 H   0  0  0  0  0  0  0  0  0  0  0  0
    3.4786    3.5283   -1.2974 H   0  0  0  0  0  0  0  0  0  0  0  0
    5.8579    3.3994    0.1954 H   0  0  0  0  0  0  0  0  0  0  0  0
    5.0653    1.7303    2.4138 H   0  0  0  0  0  0  0  0  0  0  0  0
    9.5744    1.2905    2.8675 H   0  0  0  0  0  0  0  0  0  0  0  0
   10.2934   -0.2068    4.6850 H   0  0  0  0  0  0  0  0  0  0  0  0
    8.6795   -1.7676    5.7332 H   0  0  0  0  0  0  0  0  0  0  0  0
    6.3327   -1.8396    4.9425 H   0  0  0  0  0  0  0  0  0  0  0  0
    5.5908   -0.3763    3.1154 H   0  0  0  0  0  0  0  0  0  0  0  0
    5.9801    3.0966   -2.1873 H   0  0  0  0  0  0  0  0  0  0  0  0
    6.1844    1.5650   -4.1088 H   0  0  0  0  0  0  0  0  0  0  0  0
    5.6675   -0.8445   -3.8476 H   0  0  0  0  0  0  0  0  0  0  0  0
    4.9286   -1.7231   -1.6517 H   0  0  0  0  0  0  0  0  0  0  0  0
    4.7093   -0.2135    0.2806 H   0  0  0  0  0  0  0  0  0  0  0  0
    2.2139   -1.2422   -2.6844 H   0  0  0  0  0  0  0  0  0  0  0  0
    2.6992    0.4770   -2.9486 H   0  0  0  0  0  0  0  0  0  0  0  0
    1.5239   -0.2888   -4.0650 H   0  0  0  0  0  0  0  0  0  0  0  0
   -1.1461   -0.7731   -4.3253 H   0  0  0  0  0  0  0  0  0  0  0  0
    0.3453   -5.3281   -4.0969 H   0  0  0  0  0  0  0  0  0  0  0  0
    1.6627   -4.1705   -4.5533 H   0  0  0  0  0  0  0  0  0  0  0  0
    1.1698   -4.3502   -2.8221 H   0  0  0  0  0  0  0  0  0  0  0  0
   -2.3452   -4.0990   -0.3548 H   0  0  0  0  0  0  0  0  0  0  0  0
   -1.0251   -3.3441   -1.2312 H   0  0  0  0  0  0  0  0  0  0  0  0
   -2.1297   -4.3120   -2.0934 H   0  0  0  0  0  0  0  0  0  0  0  0
   -5.2224   -2.3062   -2.1402 H   0  0  0  0  0  0  0  0  0  0  0  0
   -4.0066   -4.6350   -3.1823 H   0  0  0  0  0  0  0  0  0  0  0  0
   -4.3794   -5.0157   -0.9770 H   0  0  0  0  0  0  0  0  0  0  0  0
   -5.9975   -4.3844   -1.2958 H   0  0  0  0  0  0  0  0  0  0  0  0
   -6.1205   -3.5604    0.8101 H   0  0  0  0  0  0  0  0  0  0  0  0
   -3.8500   -2.9371    2.8600 H   0  0  0  0  0  0  0  0  0  0  0  0
   -2.5180   -3.1274    1.6103 H   0  0  0  0  0  0  0  0  0  0  0  0
   -6.8534    0.7157    2.0669 H   0  0  0  0  0  0  0  0  0  0  0  0
   -6.9639   -0.1237    3.6671 H   0  0  0  0  0  0  0  0  0  0  0  0
   -5.8656    1.3018    3.4583 H   0  0  0  0  0  0  0  0  0  0  0  0
   -3.4631    2.0442   -1.7504 H   0  0  0  0  0  0  0  0  0  0  0  0
   -2.8728    1.3993   -3.3058 H   0  0  0  0  0  0  0  0  0  0  0  0
   -3.7119    0.4110   -2.1157 H   0  0  0  0  0  0  0  0  0  0  0  0
   -1.6012    2.9623   -0.7074 H   0  0  0  0  0  0  0  0  0  0  0  0
   -1.2610    2.9813   -2.4705 H   0  0  0  0  0  0  0  0  0  0  0  0
    0.0169    2.6211   -1.3677 H   0  0  0  0  0  0  0  0  0  0  0  0
  1  2  1  0
  2  3  1  0
  3  4  1  0
  4  5  2  0
  4  6  1  0
  6  7  2  0
  7  8  1  0
  8  9  2  0
  9 10  1  0
 10 11  2  0
  2 12  1  0
 12 13  1  6
 12 14  1  0
 14 15  1  0
 15 16  1  0
 16 17  1  0
 17 18  2  0
 17 19  1  0
 19 20  1  0
 19 21  1  0
 21 22  1  0
 22 23  1  0
 23 24  2  0
 23 25  1  0
 25 26  2  0
 26 27  1  0
 27 28  2  0
 28 29  1  0
 29 30  2  0
 21 31  1  0
 31 32  2  0
 32 33  1  0
 33 34  2  0
 34 35  1  0
 35 36  2  0
 15 37  1  0
 37 38  1  0
 37 39  2  0
 39 40  1  0
 40 41  1  0
 41 42  1  0
 42 43  1  0
 42 44  2  0
 40 45  1  0
 45 46  2  0
 45 47  1  0
 47 48  1  1
 47 49  1  0
 49 50  1  0
 49 51  1  0
 51 52  1  0
 52 53  1  0
 53 54  1  0
 54 55  1  0
 55 56  1  1
 56 57  1  0
 57 58  1  0
 57 59  2  0
 39 60  1  0
 60 61  1  0
 60 62  1  0
 47  1  1  0
 55 52  1  0
 55  1  1  0
 11  6  1  0
 60 12  1  0
 30 25  1  0
 36 31  1  0
  1 63  1  6
  2 64  1  1
  7 65  1  0
  8 66  1  0
  9 67  1  0
 10 68  1  0
 11 69  1  0
 13 70  1  0
 14 71  1  0
 14 72  1  0
 15 73  1  1
 19 74  1  1
 20 75  1  0
 21 76  1  6
 22 77  1  0
 26 78  1  0
 27 79  1  0
 28 80  1  0
 29 81  1  0
 30 82  1  0
 32 83  1  0
 33 84  1  0
 34 85  1  0
 35 86  1  0
 36 87  1  0
 38 88  1  0
 38 89  1  0
 38 90  1  0
 40 91  1  6
 43 92  1  0
 43 93  1  0
 43 94  1  0
 48 95  1  0
 48 96  1  0
 48 97  1  0
 49 98  1  6
 50 99  1  0
 51100  1  0
 51101  1  0
 52102  1  1
 54103  1  0
 54104  1  0
 58105  1  0
 58106  1  0
 58107  1  0
 61108  1  0
 61109  1  0
 61110  1  0
 62111  1  0
 62112  1  0
 62113  1  0
M  END
$$$$
