
     RDKit          3D

 61 65  0  0  0  0  0  0  0  0999 V2000
    3.7077   -2.0099   -2.9706 C   0  0  1  0  0  0  0  0  0  0  0  0
    4.8878   -2.8405   -3.2190 N   0  0  0  0  0  0  0  0  0  0  0  0
    4.1308   -0.5574   -2.7126 C   0  0  0  0  0  0  0  0  0  0  0  0
    2.9291    0.3146   -2.2994 C   0  0  0  0  0  0  0  0  0  0  0  0
    1.5880   -0.1000   -2.9642 C   0  0  1  0  0  0  0  0  0  0  0  0
    1.8209   -0.8391   -4.2970 C   0  0  0  0  0  0  0  0  0  0  0  0
    2.7010   -2.0987   -4.1458 C   0  0  0  0  0  0  0  0  0  0  0  0
    0.7808   -0.9197   -2.0496 N   0  0  0  0  0  0  0  0  0  0  0  0
    0.1203   -0.3679   -0.9034 C   0  0  0  0  0  0  0  0  0  0  0  0
   -0.6227   -1.1879   -0.0906 N   0  0  0  0  0  0  0  0  0  0  0  0
   -1.2718   -0.7095    1.0149 C   0  0  0  0  0  0  0  0  0  0  0  0
   -2.0459   -1.5780    1.8529 N   0  0  0  0  0  0  0  0  0  0  0  0
   -2.1705   -3.0053    1.5606 C   0  0  0  0  0  0  0  0  0  0  0  0
   -3.0317   -3.6840    2.5910 C   0  0  0  0  0  0  0  0  0  0  0  0
   -4.4240   -3.7505    2.4175 C   0  0  0  0  0  0  0  0  0  0  0  0
   -5.2271   -4.3482    3.3940 C   0  0  0  0  0  0  0  0  0  0  0  0
   -4.6479   -4.8721    4.5531 C   0  0  0  0  0  0  0  0  0  0  0  0
   -3.2649   -4.7949    4.7399 C   0  0  0  0  0  0  0  0  0  0  0  0
   -2.4582   -4.1979    3.7658 C   0  0  0  0  0  0  0  0  0  0  0  0
   -1.1506    0.6481    1.2899 C   0  0  0  0  0  0  0  0  0  0  0  0
   -1.6860    1.3693    2.2929 N   0  0  0  0  0  0  0  0  0  0  0  0
   -1.2289    2.6260    2.0362 C   0  0  0  0  0  0  0  0  0  0  0  0
   -0.4395    2.6985    0.9305 N   0  0  0  0  0  0  0  0  0  0  0  0
    0.1909    3.8834    0.3344 C   0  0  0  0  0  0  0  0  0  0  0  0
   -0.8636    4.8601   -0.2001 C   0  0  0  0  0  0  0  0  0  0  0  0
   -0.4730    6.2333    0.3218 C   0  0  0  0  0  0  0  0  0  0  0  0
    0.3134    5.9745    1.5928 C   0  0  0  0  0  0  0  0  0  0  0  0
    1.0285    4.6530    1.3638 C   0  0  0  0  0  0  0  0  0  0  0  0
   -0.4139    1.4391    0.4782 C   0  0  0  0  0  0  0  0  0  0  0  0
    0.2256    0.9672   -0.6179 N   0  0  0  0  0  0  0  0  0  0  0  0
    3.2118   -2.3875   -2.0479 H   0  0  0  0  0  0  0  0  0  0  0  0
    5.3550   -2.5274   -4.1014 H   0  0  0  0  0  0  0  0  0  0  0  0
    4.5757   -3.8286   -3.3629 H   0  0  0  0  0  0  0  0  0  0  0  0
    4.5907   -0.1390   -3.6355 H   0  0  0  0  0  0  0  0  0  0  0  0
    4.8994   -0.5249   -1.9096 H   0  0  0  0  0  0  0  0  0  0  0  0
    3.1573    1.3691   -2.5687 H   0  0  0  0  0  0  0  0  0  0  0  0
    2.8322    0.2870   -1.1924 H   0  0  0  0  0  0  0  0  0  0  0  0
    1.0122    0.8227   -3.2012 H   0  0  0  0  0  0  0  0  0  0  0  0
    2.3161   -0.1371   -5.0041 H   0  0  0  0  0  0  0  0  0  0  0  0
    0.8441   -1.1194   -4.7481 H   0  0  0  0  0  0  0  0  0  0  0  0
    2.0510   -2.9872   -3.9902 H   0  0  0  0  0  0  0  0  0  0  0  0
    3.2386   -2.2585   -5.1061 H   0  0  0  0  0  0  0  0  0  0  0  0
    0.6173   -1.9302   -2.2613 H   0  0  0  0  0  0  0  0  0  0  0  0
   -2.5284   -1.1755    2.6893 H   0  0  0  0  0  0  0  0  0  0  0  0
   -1.1601   -3.4695    1.5475 H   0  0  0  0  0  0  0  0  0  0  0  0
   -2.6146   -3.1383    0.5499 H   0  0  0  0  0  0  0  0  0  0  0  0
   -4.8862   -3.3391    1.5286 H   0  0  0  0  0  0  0  0  0  0  0  0
   -6.2991   -4.4018    3.2539 H   0  0  0  0  0  0  0  0  0  0  0  0
   -5.2709   -5.3331    5.3086 H   0  0  0  0  0  0  0  0  0  0  0  0
   -2.8182   -5.1941    5.6413 H   0  0  0  0  0  0  0  0  0  0  0  0
   -1.3891   -4.1351    3.9272 H   0  0  0  0  0  0  0  0  0  0  0  0
   -1.4782    3.4811    2.6509 H   0  0  0  0  0  0  0  0  0  0  0  0
    0.8556    3.5722   -0.5034 H   0  0  0  0  0  0  0  0  0  0  0  0
   -0.8883    4.8537   -1.3116 H   0  0  0  0  0  0  0  0  0  0  0  0
   -1.8787    4.6027    0.1751 H   0  0  0  0  0  0  0  0  0  0  0  0
    0.1795    6.7437   -0.4210 H   0  0  0  0  0  0  0  0  0  0  0  0
   -1.3667    6.8639    0.5201 H   0  0  0  0  0  0  0  0  0  0  0  0
    1.0324    6.7968    1.7989 H   0  0  0  0  0  0  0  0  0  0  0  0
   -0.3880    5.8764    2.4507 H   0  0  0  0  0  0  0  0  0  0  0  0
    2.0395    4.8532    0.9446 H   0  0  0  0  0  0  0  0  0  0  0  0
    1.1532    4.0978    2.3191 H   0  0  0  0  0  0  0  0  0  0  0  0
  1  2  1  0
  1  3  1  0
  3  4  1  0
  4  5  1  0
  5  6  1  0
  6  7  1  0
  5  8  1  0
  8  9  1  0
  9 10  2  0
 10 11  1  0
 11 12  1  0
 12 13  1  0
 13 14  1  0
 14 15  2  0
 15 16  1  0
 16 17  2  0
 17 18  1  0
 18 19  2  0
 11 20  2  0
 20 21  1  0
 21 22  2  0
 22 23  1  0
 23 24  1  0
 24 25  1  0
 25 26  1  0
 26 27  1  0
 27 28  1  0
 23 29  1  0
 29 30  2  0
  7  1  1  0
 30  9  1  0
 19 14  1  0
 29 20  1  0
 28 24  1  0
  1 31  1  1
  2 32  1  0
  2 33  1  0
  3 34  1  0
  3 35  1  0
  4 36  1  0
  4 37  1  0
  5 38  1  6
  6 39  1  0
  6 40  1  0
  7 41  1  0
  7 42  1  0
  8 43  1  0
 12 44  1  0
 13 45  1  0
 13 46  1  0
 15 47  1  0
 16 48  1  0
 17 49  1  0
 18 50  1  0
 19 51  1  0
 22 52  1  0
 24 53  1  0
 25 54  1  0
 25 55  1  0
 26 56  1  0
 26 57  1  0
 27 58  1  0
 27 59  1  0
 28 60  1  0
 28 61  1  0
M  END
$$$$
