
     RDKit          3D

 15 14  0  0  0  0  0  0  0  0999 V2000
   -0.8736    1.5300   -0.8518 N   0  0  0  0  0  0  0  0  0  0  0  0
   -0.2209    0.3188   -0.3503 C   0  0  1  0  0  0  0  0  0  0  0  0
    0.4383    0.5751    1.0195 C   0  0  0  0  0  0  0  0  0  0  0  0
    1.3800   -0.8786    1.6078 S   0  0  0  0  0  0  0  0  0  0  0  0
    3.0924   -0.4789    0.3989 S   0  0  0  0  0  0  0  0  0  0  0  0
   -1.2235   -0.7982   -0.2726 C   0  0  0  0  0  0  0  0  0  0  0  0
   -0.9787   -1.9943   -0.9402 O   0  0  0  0  0  0  0  0  0  0  0  0
   -2.2774   -0.6630    0.4062 O   0  0  0  0  0  0  0  0  0  0  0  0
   -0.1413    2.2572   -1.0232 H   0  0  0  0  0  0  0  0  0  0  0  0
   -1.5198    1.9081   -0.1204 H   0  0  0  0  0  0  0  0  0  0  0  0
    0.5672    0.0287   -1.0784 H   0  0  0  0  0  0  0  0  0  0  0  0
   -0.3426    0.8097    1.7744 H   0  0  0  0  0  0  0  0  0  0  0  0
    1.1149    1.4545    0.9598 H   0  0  0  0  0  0  0  0  0  0  0  0
    2.6246   -1.3085   -0.6371 H   0  0  0  0  0  0  0  0  0  0  0  0
   -1.6397   -2.7605   -0.8927 H   0  0  0  0  0  0  0  0  0  0  0  0
  1  2  1  0
  2  3  1  0
  3  4  1  0
  4  5  1  0
  2  6  1  0
  6  7  1  0
  6  8  2  0
  1  9  1  0
  1 10  1  0
  2 11  1  6
  3 12  1  0
  3 13  1  0
  5 14  1  0
  7 15  1  0
M  END
$$$$
