
     RDKit          3D

 25 28  0  0  0  0  0  0  0  0999 V2000
   -0.5436   -2.9388    0.1669 O   0  0  0  0  0  0  0  0  0  0  0  0
   -0.3398   -1.6951    0.1828 C   0  0  0  0  0  0  0  0  0  0  0  0
    1.0454   -1.1604    0.1486 C   0  0  0  0  0  0  0  0  0  0  0  0
    2.2458   -1.9016    0.0975 C   0  0  0  0  0  0  0  0  0  0  0  0
    3.4954   -1.2154    0.0704 C   0  0  0  0  0  0  0  0  0  0  0  0
    3.5470    0.2037    0.0942 C   0  0  0  0  0  0  0  0  0  0  0  0
    2.3296    0.8828    0.1447 C   0  0  0  0  0  0  0  0  0  0  0  0
    1.1686    0.2064    0.1693 C   0  0  0  0  0  0  0  0  0  0  0  0
    0.1775    1.1177    0.2169 C   0  0  0  0  0  0  0  0  0  0  0  0
    0.7234    2.3589    0.2219 N   0  0  0  0  0  0  0  0  0  0  0  0
    2.0515    2.2031    0.1772 N   0  0  0  0  0  0  0  0  0  0  0  0
   -1.2303    0.6850    0.2535 C   0  0  0  0  0  0  0  0  0  0  0  0
   -1.4890   -0.7190    0.2365 C   0  0  0  0  0  0  0  0  0  0  0  0
   -2.8201   -1.1638    0.2706 C   0  0  0  0  0  0  0  0  0  0  0  0
   -3.8703   -0.2406    0.3202 C   0  0  0  0  0  0  0  0  0  0  0  0
   -3.6062    1.1331    0.3365 C   0  0  0  0  0  0  0  0  0  0  0  0
   -2.2889    1.5988    0.3033 C   0  0  0  0  0  0  0  0  0  0  0  0
    2.2225   -2.9834    0.0789 H   0  0  0  0  0  0  0  0  0  0  0  0
    4.4160   -1.7828    0.0312 H   0  0  0  0  0  0  0  0  0  0  0  0
    4.4895    0.7348    0.0740 H   0  0  0  0  0  0  0  0  0  0  0  0
    2.7407    2.9871    0.1695 H   0  0  0  0  0  0  0  0  0  0  0  0
   -3.0483   -2.2221    0.2588 H   0  0  0  0  0  0  0  0  0  0  0  0
   -4.8939   -0.5914    0.3462 H   0  0  0  0  0  0  0  0  0  0  0  0
   -4.4260    1.8387    0.3750 H   0  0  0  0  0  0  0  0  0  0  0  0
   -2.0966    2.6643    0.3163 H   0  0  0  0  0  0  0  0  0  0  0  0
  1  2  2  0
  2  3  1  0
  3  4  2  0
  4  5  1  0
  5  6  2  0
  6  7  1  0
  7  8  2  0
  8  9  1  0
  9 10  2  0
 10 11  1  0
  9 12  1  0
 12 13  2  0
 13 14  1  0
 14 15  2  0
 15 16  1  0
 16 17  2  0
 13  2  1  0
  8  3  1  0
 17 12  1  0
 11  7  1  0
  4 18  1  0
  5 19  1  0
  6 20  1  0
 11 21  1  0
 14 22  1  0
 15 23  1  0
 16 24  1  0
 17 25  1  0
M  END
$$$$
