
     RDKit          3D

 76 79  0  0  0  0  0  0  0  0999 V2000
    1.1089   -2.4158    1.5968 C   0  0  0  0  0  0  0  0  0  0  0  0
    1.0722   -0.9631    2.0931 C   0  0  0  0  0  0  0  0  0  0  0  0
    0.6612   -0.8715    3.5646 C   0  0  0  0  0  0  0  0  0  0  0  0
    0.2153   -0.0517    1.2228 C   0  0  0  0  0  0  0  0  0  0  0  0
   -1.0547   -0.3330    0.7036 C   0  0  0  0  0  0  0  0  0  0  0  0
   -1.8981   -1.5258    0.9045 C   0  0  0  0  0  0  0  0  0  0  0  0
   -2.0695   -1.9898    2.0626 O   0  0  0  0  0  0  0  0  0  0  0  0
   -2.5499   -2.1297   -0.2226 N   0  0  0  0  0  0  0  0  0  0  0  0
   -3.7242   -2.9533   -0.1295 C   0  0  0  0  0  0  0  0  0  0  0  0
   -3.9554   -3.9340   -1.1068 C   0  0  0  0  0  0  0  0  0  0  0  0
   -5.1067   -4.7259   -1.0567 C   0  0  0  0  0  0  0  0  0  0  0  0
   -6.0443   -4.5343   -0.0390 C   0  0  0  0  0  0  0  0  0  0  0  0
   -5.8354   -3.5457    0.9258 C   0  0  0  0  0  0  0  0  0  0  0  0
   -4.6845   -2.7529    0.8803 C   0  0  0  0  0  0  0  0  0  0  0  0
   -1.4361    0.7697   -0.0430 C   0  0  0  0  0  0  0  0  0  0  0  0
   -0.4156    1.6946    0.0672 C   0  0  0  0  0  0  0  0  0  0  0  0
    0.5805    1.2060    0.8458 N   0  0  0  0  0  0  0  0  0  0  0  0
    1.7783    1.9607    1.2555 C   0  0  0  0  0  0  0  0  0  0  0  0
    2.7934    2.0874    0.1059 C   0  0  0  0  0  0  0  0  0  0  0  0
    3.5030    0.7660   -0.2660 C   0  0  1  0  0  0  0  0  0  0  0  0
    3.9923    0.8791   -1.5777 O   0  0  0  0  0  0  0  0  0  0  0  0
    4.6859    0.4873    0.6907 C   0  0  0  0  0  0  0  0  0  0  0  0
    5.2931   -0.9307    0.5810 C   0  0  1  0  0  0  0  0  0  0  0  0
    4.3172   -1.9043    0.8480 O   0  0  0  0  0  0  0  0  0  0  0  0
    5.9326   -1.2063   -0.7897 C   0  0  0  0  0  0  0  0  0  0  0  0
    6.7737   -2.4444   -0.7451 C   0  0  0  0  0  0  0  0  0  0  0  0
    8.1053   -2.3631   -0.3500 O   0  0  0  0  0  0  0  0  0  0  0  0
    6.2674   -3.5635   -1.0270 O   0  0  0  0  0  0  0  0  0  0  0  0
   -0.4944    3.0863   -0.4134 C   0  0  0  0  0  0  0  0  0  0  0  0
   -0.1336    3.4036   -1.7309 C   0  0  0  0  0  0  0  0  0  0  0  0
   -0.2252    4.7228   -2.1848 C   0  0  0  0  0  0  0  0  0  0  0  0
   -0.6796    5.7289   -1.3265 C   0  0  0  0  0  0  0  0  0  0  0  0
   -0.7684    7.0077   -1.7680 F   0  0  0  0  0  0  0  0  0  0  0  0
   -1.0428    5.4158   -0.0128 C   0  0  0  0  0  0  0  0  0  0  0  0
   -0.9522    4.0973    0.4437 C   0  0  0  0  0  0  0  0  0  0  0  0
   -2.7512    0.9873   -0.6821 C   0  0  0  0  0  0  0  0  0  0  0  0
   -3.9326    0.8476    0.0650 C   0  0  0  0  0  0  0  0  0  0  0  0
   -5.1771    1.0330   -0.5440 C   0  0  0  0  0  0  0  0  0  0  0  0
   -5.2505    1.3625   -1.9000 C   0  0  0  0  0  0  0  0  0  0  0  0
   -4.0793    1.5045   -2.6492 C   0  0  0  0  0  0  0  0  0  0  0  0
   -2.8329    1.3160   -2.0441 C   0  0  0  0  0  0  0  0  0  0  0  0
    1.9388   -2.9607    2.0945 H   0  0  0  0  0  0  0  0  0  0  0  0
    1.2860   -2.4431    0.5002 H   0  0  0  0  0  0  0  0  0  0  0  0
    0.1778   -2.9643    1.8310 H   0  0  0  0  0  0  0  0  0  0  0  0
    2.1225   -0.6227    2.0350 H   0  0  0  0  0  0  0  0  0  0  0  0
   -0.3709   -1.2410    3.7217 H   0  0  0  0  0  0  0  0  0  0  0  0
    1.3522   -1.4759    4.1903 H   0  0  0  0  0  0  0  0  0  0  0  0
    0.7162    0.1835    3.9087 H   0  0  0  0  0  0  0  0  0  0  0  0
   -2.1265   -1.9785   -1.1664 H   0  0  0  0  0  0  0  0  0  0  0  0
   -3.2383   -4.0887   -1.9033 H   0  0  0  0  0  0  0  0  0  0  0  0
   -5.2733   -5.4859   -1.8091 H   0  0  0  0  0  0  0  0  0  0  0  0
   -6.9367   -5.1458   -0.0030 H   0  0  0  0  0  0  0  0  0  0  0  0
   -6.5704   -3.3872    1.7044 H   0  0  0  0  0  0  0  0  0  0  0  0
   -4.5621   -1.9700    1.6164 H   0  0  0  0  0  0  0  0  0  0  0  0
    1.4702    2.9845    1.5576 H   0  0  0  0  0  0  0  0  0  0  0  0
    2.2486    1.5318    2.1605 H   0  0  0  0  0  0  0  0  0  0  0  0
    3.5520    2.8537    0.3786 H   0  0  0  0  0  0  0  0  0  0  0  0
    2.2676    2.4819   -0.7868 H   0  0  0  0  0  0  0  0  0  0  0  0
    2.7773   -0.0770   -0.2131 H   0  0  0  0  0  0  0  0  0  0  0  0
    3.2266    0.7124   -2.1880 H   0  0  0  0  0  0  0  0  0  0  0  0
    4.3509    0.6222    1.7411 H   0  0  0  0  0  0  0  0  0  0  0  0
    5.4861    1.2399    0.5150 H   0  0  0  0  0  0  0  0  0  0  0  0
    6.1038   -0.9940    1.3469 H   0  0  0  0  0  0  0  0  0  0  0  0
    4.2273   -1.9558    1.8354 H   0  0  0  0  0  0  0  0  0  0  0  0
    6.5767   -0.3508   -1.0874 H   0  0  0  0  0  0  0  0  0  0  0  0
    5.1459   -1.3376   -1.5630 H   0  0  0  0  0  0  0  0  0  0  0  0
    8.6835   -3.1932   -0.2991 H   0  0  0  0  0  0  0  0  0  0  0  0
    0.2233    2.6320   -2.4020 H   0  0  0  0  0  0  0  0  0  0  0  0
    0.0564    4.9641   -3.2017 H   0  0  0  0  0  0  0  0  0  0  0  0
   -1.3960    6.1937    0.6519 H   0  0  0  0  0  0  0  0  0  0  0  0
   -1.2392    3.8630    1.4615 H   0  0  0  0  0  0  0  0  0  0  0  0
   -3.8900    0.6001    1.1184 H   0  0  0  0  0  0  0  0  0  0  0  0
   -6.0843    0.9220    0.0357 H   0  0  0  0  0  0  0  0  0  0  0  0
   -6.2146    1.5057   -2.3706 H   0  0  0  0  0  0  0  0  0  0  0  0
   -4.1373    1.7535   -3.7008 H   0  0  0  0  0  0  0  0  0  0  0  0
   -1.9363    1.4029   -2.6432 H   0  0  0  0  0  0  0  0  0  0  0  0
  1  2  1  0
  2  3  1  0
  2  4  1  0
  4  5  2  0
  5  6  1  0
  6  7  2  0
  6  8  1  0
  8  9  1  0
  9 10  2  0
 10 11  1  0
 11 12  2  0
 12 13  1  0
 13 14  2  0
  5 15  1  0
 15 16  2  0
 16 17  1  0
 17 18  1  0
 18 19  1  0
 19 20  1  0
 20 21  1  0
 20 22  1  0
 22 23  1  0
 23 24  1  0
 23 25  1  0
 25 26  1  0
 26 27  1  0
 26 28  2  0
 16 29  1  0
 29 30  2  0
 30 31  1  0
 31 32  2  0
 32 33  1  0
 32 34  1  0
 34 35  2  0
 15 36  1  0
 36 37  2  0
 37 38  1  0
 38 39  2  0
 39 40  1  0
 40 41  2  0
 17  4  1  0
 35 29  1  0
 41 36  1  0
 14  9  1  0
  1 42  1  0
  1 43  1  0
  1 44  1  0
  2 45  1  0
  3 46  1  0
  3 47  1  0
  3 48  1  0
  8 49  1  0
 10 50  1  0
 11 51  1  0
 12 52  1  0
 13 53  1  0
 14 54  1  0
 18 55  1  0
 18 56  1  0
 19 57  1  0
 19 58  1  0
 20 59  1  6
 21 60  1  0
 22 61  1  0
 22 62  1  0
 23 63  1  1
 24 64  1  0
 25 65  1  0
 25 66  1  0
 27 67  1  0
 30 68  1  0
 31 69  1  0
 34 70  1  0
 35 71  1  0
 37 72  1  0
 38 73  1  0
 39 74  1  0
 40 75  1  0
 41 76  1  0
M  END
$$$$
