
     RDKit          3D

 49 52  0  0  0  0  0  0  0  0999 V2000
    0.5939    0.9562   -0.7789 C   0  0  1  0  0  0  0  0  0  0  0  0
   -0.2160   -0.1195   -1.5159 C   0  0  0  0  0  0  0  0  0  0  0  0
   -1.6124    0.3654   -1.7970 C   0  0  0  0  0  0  0  0  0  0  0  0
   -2.2878    1.1455   -0.8320 C   0  0  0  0  0  0  0  0  0  0  0  0
   -3.6029    1.5745   -1.1052 C   0  0  0  0  0  0  0  0  0  0  0  0
   -4.2410    1.1954   -2.2890 C   0  0  0  0  0  0  0  0  0  0  0  0
   -3.5789    0.3931   -3.2181 C   0  0  0  0  0  0  0  0  0  0  0  0
   -2.2696   -0.0229   -2.9745 C   0  0  0  0  0  0  0  0  0  0  0  0
   -1.6088    1.5002    0.4004 N   0  0  0  0  0  0  0  0  0  0  0  0
   -2.3530    1.6310    1.6649 C   0  0  0  0  0  0  0  0  0  0  0  0
   -2.7743    0.2748    2.1400 C   0  0  0  0  0  0  0  0  0  0  0  0
   -1.9769   -0.4147    2.8316 O   0  0  0  0  0  0  0  0  0  0  0  0
   -4.0413   -0.2655    1.7419 N   0  0  0  0  0  0  0  0  0  0  0  0
   -4.3497   -1.6903    1.8377 C   0  0  0  0  0  0  0  0  0  0  0  0
   -3.5646   -2.4851    0.7903 C   0  0  0  0  0  0  0  0  0  0  0  0
   -3.8443   -2.0154   -0.5010 O   0  0  0  0  0  0  0  0  0  0  0  0
   -0.1655    1.4289    0.4348 C   0  0  0  0  0  0  0  0  0  0  0  0
    0.4693    1.8115    1.4562 O   0  0  0  0  0  0  0  0  0  0  0  0
    1.9012    0.4152   -0.3921 N   0  0  0  0  0  0  0  0  0  0  0  0
    3.0949    1.2159   -0.3874 C   0  0  0  0  0  0  0  0  0  0  0  0
    3.0372    2.4330   -0.7119 O   0  0  0  0  0  0  0  0  0  0  0  0
    4.3985    0.6414   -0.0007 C   0  0  0  0  0  0  0  0  0  0  0  0
    4.6486   -0.7121    0.2954 C   0  0  0  0  0  0  0  0  0  0  0  0
    5.9923   -0.7454    0.5824 C   0  0  0  0  0  0  0  0  0  0  0  0
    6.4687    0.4962    0.4575 C   0  0  0  0  0  0  0  0  0  0  0  0
    5.5353    1.3842    0.1001 N   0  0  0  0  0  0  0  0  0  0  0  0
    8.1096    0.5906    0.7722 S   0  0  0  0  0  0  0  0  0  0  0  0
    8.1894   -1.0917    1.0901 C   0  0  0  0  0  0  0  0  0  0  0  0
    9.6559   -1.9374    1.5368 Cl  0  0  0  0  0  0  0  0  0  0  0  0
    6.9328   -1.6991    0.9429 C   0  0  0  0  0  0  0  0  0  0  0  0
    0.7252    1.8202   -1.4673 H   0  0  0  0  0  0  0  0  0  0  0  0
   -0.2833   -1.0406   -0.8962 H   0  0  0  0  0  0  0  0  0  0  0  0
    0.3070   -0.3759   -2.4635 H   0  0  0  0  0  0  0  0  0  0  0  0
   -4.1425    2.2125   -0.4225 H   0  0  0  0  0  0  0  0  0  0  0  0
   -5.2526    1.5259   -2.4866 H   0  0  0  0  0  0  0  0  0  0  0  0
   -4.0801    0.0959   -4.1302 H   0  0  0  0  0  0  0  0  0  0  0  0
   -1.7684   -0.6479   -3.7031 H   0  0  0  0  0  0  0  0  0  0  0  0
   -1.7321    2.1165    2.4478 H   0  0  0  0  0  0  0  0  0  0  0  0
   -3.2338    2.2912    1.5478 H   0  0  0  0  0  0  0  0  0  0  0  0
   -4.7625    0.3722    1.3360 H   0  0  0  0  0  0  0  0  0  0  0  0
   -4.1093   -2.0622    2.8569 H   0  0  0  0  0  0  0  0  0  0  0  0
   -5.4377   -1.8436    1.6685 H   0  0  0  0  0  0  0  0  0  0  0  0
   -2.4753   -2.3818    0.9792 H   0  0  0  0  0  0  0  0  0  0  0  0
   -3.8190   -3.5659    0.8713 H   0  0  0  0  0  0  0  0  0  0  0  0
   -4.7531   -2.3412   -0.7317 H   0  0  0  0  0  0  0  0  0  0  0  0
    1.9276   -0.5383    0.0327 H   0  0  0  0  0  0  0  0  0  0  0  0
    3.9622   -1.5474    0.2912 H   0  0  0  0  0  0  0  0  0  0  0  0
    5.6591    2.4081   -0.0637 H   0  0  0  0  0  0  0  0  0  0  0  0
    6.7279   -2.7516    1.0866 H   0  0  0  0  0  0  0  0  0  0  0  0
  1  2  1  0
  2  3  1  0
  3  4  2  0
  4  5  1  0
  5  6  2  0
  6  7  1  0
  7  8  2  0
  4  9  1  0
  9 10  1  0
 10 11  1  0
 11 12  2  0
 11 13  1  0
 13 14  1  0
 14 15  1  0
 15 16  1  0
  9 17  1  0
 17 18  2  0
  1 19  1  0
 19 20  1  0
 20 21  2  0
 20 22  1  0
 22 23  2  0
 23 24  1  0
 24 25  2  0
 25 26  1  0
 25 27  1  0
 27 28  1  0
 28 29  1  0
 28 30  2  0
 17  1  1  0
 26 22  1  0
  8  3  1  0
 30 24  1  0
  1 31  1  6
  2 32  1  0
  2 33  1  0
  5 34  1  0
  6 35  1  0
  7 36  1  0
  8 37  1  0
 10 38  1  0
 10 39  1  0
 13 40  1  0
 14 41  1  0
 14 42  1  0
 15 43  1  0
 15 44  1  0
 16 45  1  0
 19 46  1  0
 23 47  1  0
 26 48  1  0
 30 49  1  0
M  END
$$$$
