
     RDKit          3D

 38 40  0  0  0  0  0  0  0  0999 V2000
    0.9821   -2.5485    1.1265 O   0  0  0  0  0  0  0  0  0  0  0  0
    0.8059   -2.4011   -0.2578 C   0  0  0  0  0  0  0  0  0  0  0  0
   -0.5207   -1.8733   -0.5634 N   0  0  0  0  0  0  0  0  0  0  0  0
   -1.0140   -0.7502   -0.1249 C   0  0  0  0  0  0  0  0  0  0  0  0
   -2.3853   -0.3726   -0.5525 C   0  0  0  0  0  0  0  0  0  0  0  0
   -3.3648   -1.3680   -0.7280 C   0  0  0  0  0  0  0  0  0  0  0  0
   -4.6597   -1.0260   -1.1278 C   0  0  0  0  0  0  0  0  0  0  0  0
   -4.9899    0.3096   -1.3646 C   0  0  0  0  0  0  0  0  0  0  0  0
   -4.0242    1.3060   -1.2077 C   0  0  0  0  0  0  0  0  0  0  0  0
   -2.7259    0.9726   -0.8076 C   0  0  0  0  0  0  0  0  0  0  0  0
   -1.7994    1.9591   -0.7037 F   0  0  0  0  0  0  0  0  0  0  0  0
   -0.2678    0.1011    0.8452 C   0  0  0  0  0  0  0  0  0  0  0  0
    1.1109    0.4101    0.6896 C   0  0  0  0  0  0  0  0  0  0  0  0
    1.7313    1.2432    1.6418 C   0  0  0  0  0  0  0  0  0  0  0  0
    1.0179    1.7471    2.7288 C   0  0  0  0  0  0  0  0  0  0  0  0
   -0.3295    1.4324    2.8870 C   0  0  0  0  0  0  0  0  0  0  0  0
   -1.2234    2.0639    4.2579 Cl  0  0  0  0  0  0  0  0  0  0  0  0
   -0.9676    0.6153    1.9536 C   0  0  0  0  0  0  0  0  0  0  0  0
    1.8819   -0.0807   -0.4346 N   0  0  0  0  0  0  0  0  0  0  0  0
    2.7426    0.8533   -1.1825 C   0  0  0  0  0  0  0  0  0  0  0  0
    4.2197    0.7305   -0.7627 C   0  0  0  0  0  0  0  0  0  0  0  0
    4.9826   -0.1125   -1.6913 C   0  0  0  0  0  0  0  0  0  0  0  0
    5.5856   -0.7760   -2.4230 N   0  0  0  0  0  0  0  0  0  0  0  0
    1.8381   -1.4728   -0.8186 C   0  0  0  0  0  0  0  0  0  0  0  0
    2.6449   -1.9195   -1.6782 O   0  0  0  0  0  0  0  0  0  0  0  0
    0.3395   -3.2465    1.4188 H   0  0  0  0  0  0  0  0  0  0  0  0
    0.9076   -3.3967   -0.7468 H   0  0  0  0  0  0  0  0  0  0  0  0
   -3.1319   -2.4092   -0.5415 H   0  0  0  0  0  0  0  0  0  0  0  0
   -5.4083   -1.7977   -1.2529 H   0  0  0  0  0  0  0  0  0  0  0  0
   -5.9929    0.5722   -1.6752 H   0  0  0  0  0  0  0  0  0  0  0  0
   -4.2810    2.3391   -1.4040 H   0  0  0  0  0  0  0  0  0  0  0  0
    2.7757    1.5038    1.5508 H   0  0  0  0  0  0  0  0  0  0  0  0
    1.5165    2.3825    3.4499 H   0  0  0  0  0  0  0  0  0  0  0  0
   -2.0146    0.3762    2.0966 H   0  0  0  0  0  0  0  0  0  0  0  0
    2.4050    1.8978   -1.0000 H   0  0  0  0  0  0  0  0  0  0  0  0
    2.6169    0.6909   -2.2765 H   0  0  0  0  0  0  0  0  0  0  0  0
    4.3114    0.3055    0.2587 H   0  0  0  0  0  0  0  0  0  0  0  0
    4.6851    1.7389   -0.7573 H   0  0  0  0  0  0  0  0  0  0  0  0
  1  2  1  0
  2  3  1  0
  3  4  2  0
  4  5  1  0
  5  6  2  0
  6  7  1  0
  7  8  2  0
  8  9  1  0
  9 10  2  0
 10 11  1  0
  4 12  1  0
 12 13  2  0
 13 14  1  0
 14 15  2  0
 15 16  1  0
 16 17  1  0
 16 18  2  0
 13 19  1  0
 19 20  1  0
 20 21  1  0
 21 22  1  0
 22 23  3  0
 19 24  1  0
 24 25  2  0
 24  2  1  0
 10  5  1  0
 18 12  1  0
  1 26  1  0
  2 27  1  0
  6 28  1  0
  7 29  1  0
  8 30  1  0
  9 31  1  0
 14 32  1  0
 15 33  1  0
 18 34  1  0
 20 35  1  0
 20 36  1  0
 21 37  1  0
 21 38  1  0
M  END
$$$$
