
     RDKit          3D

 51 52  0  0  0  0  0  0  0  0999 V2000
    6.1077    0.7315    0.5005 C   0  0  0  0  0  0  0  0  0  0  0  0
    5.8293   -0.0333   -0.8042 C   0  0  0  0  0  0  0  0  0  0  0  0
    6.8711   -1.1313   -1.0520 C   0  0  0  0  0  0  0  0  0  0  0  0
    4.4539   -0.5681   -0.8811 N   0  0  0  0  0  0  0  0  0  0  0  0
    4.0417   -1.3663    0.2875 C   0  0  0  0  0  0  0  0  0  0  0  0
    2.8498   -2.2826   -0.0556 C   0  0  0  0  0  0  0  0  0  0  0  0
    3.2181   -3.2404   -1.0167 O   0  0  0  0  0  0  0  0  0  0  0  0
    1.5988   -1.5114   -0.5076 C   0  0  0  0  0  0  0  0  0  0  0  0
    1.2008   -0.5900    0.5055 O   0  0  0  0  0  0  0  0  0  0  0  0
    0.1038    0.2774    0.4029 C   0  0  0  0  0  0  0  0  0  0  0  0
   -0.1616    1.1418    1.4711 C   0  0  0  0  0  0  0  0  0  0  0  0
   -1.2439    2.0248    1.4188 C   0  0  0  0  0  0  0  0  0  0  0  0
   -2.0724    2.0624    0.2872 C   0  0  0  0  0  0  0  0  0  0  0  0
   -3.2683    2.9787    0.2506 C   0  0  0  0  0  0  0  0  0  0  0  0
   -4.4932    2.3081    0.8721 C   0  0  0  0  0  0  0  0  0  0  0  0
   -4.8183    1.1499    0.1333 O   0  0  0  0  0  0  0  0  0  0  0  0
   -5.9309    0.5041    0.7191 C   0  0  0  0  0  0  0  0  0  0  0  0
   -6.2734   -0.8146    0.0043 C   0  0  0  0  0  0  0  0  0  0  0  0
   -5.0938   -1.6434   -0.4857 C   0  0  0  0  0  0  0  0  0  0  0  0
   -5.9709   -0.9004   -1.4856 C   0  0  0  0  0  0  0  0  0  0  0  0
   -1.8151    1.1901   -0.7820 C   0  0  0  0  0  0  0  0  0  0  0  0
   -0.7340    0.3057   -0.7283 C   0  0  0  0  0  0  0  0  0  0  0  0
    6.1459    0.0430    1.3709 H   0  0  0  0  0  0  0  0  0  0  0  0
    5.3167    1.4918    0.6726 H   0  0  0  0  0  0  0  0  0  0  0  0
    7.0848    1.2551    0.4288 H   0  0  0  0  0  0  0  0  0  0  0  0
    5.9455    0.6983   -1.6356 H   0  0  0  0  0  0  0  0  0  0  0  0
    7.8689   -0.6720   -1.2184 H   0  0  0  0  0  0  0  0  0  0  0  0
    6.5999   -1.7138   -1.9580 H   0  0  0  0  0  0  0  0  0  0  0  0
    6.9519   -1.8231   -0.1886 H   0  0  0  0  0  0  0  0  0  0  0  0
    3.8002    0.2458   -0.9656 H   0  0  0  0  0  0  0  0  0  0  0  0
    4.8685   -2.0172    0.6399 H   0  0  0  0  0  0  0  0  0  0  0  0
    3.7620   -0.6955    1.1304 H   0  0  0  0  0  0  0  0  0  0  0  0
    2.5805   -2.8325    0.8726 H   0  0  0  0  0  0  0  0  0  0  0  0
    3.4084   -2.7610   -1.8650 H   0  0  0  0  0  0  0  0  0  0  0  0
    1.8030   -0.9669   -1.4546 H   0  0  0  0  0  0  0  0  0  0  0  0
    0.7763   -2.2374   -0.6873 H   0  0  0  0  0  0  0  0  0  0  0  0
    0.4723    1.1255    2.3486 H   0  0  0  0  0  0  0  0  0  0  0  0
   -1.4384    2.6763    2.2618 H   0  0  0  0  0  0  0  0  0  0  0  0
   -3.4977    3.2682   -0.7985 H   0  0  0  0  0  0  0  0  0  0  0  0
   -3.0434    3.9154    0.8060 H   0  0  0  0  0  0  0  0  0  0  0  0
   -5.3370    3.0346    0.8470 H   0  0  0  0  0  0  0  0  0  0  0  0
   -4.2615    2.0561    1.9329 H   0  0  0  0  0  0  0  0  0  0  0  0
   -6.8287    1.1594    0.6640 H   0  0  0  0  0  0  0  0  0  0  0  0
   -5.7290    0.2561    1.7857 H   0  0  0  0  0  0  0  0  0  0  0  0
   -7.1486   -1.4063    0.3478 H   0  0  0  0  0  0  0  0  0  0  0  0
   -5.2641   -2.7407   -0.4719 H   0  0  0  0  0  0  0  0  0  0  0  0
   -4.0822   -1.2031   -0.3566 H   0  0  0  0  0  0  0  0  0  0  0  0
   -6.6551   -1.5630   -2.0565 H   0  0  0  0  0  0  0  0  0  0  0  0
   -5.4790   -0.0216   -1.9531 H   0  0  0  0  0  0  0  0  0  0  0  0
   -2.4568    1.1896   -1.6546 H   0  0  0  0  0  0  0  0  0  0  0  0
   -0.5623   -0.3539   -1.5677 H   0  0  0  0  0  0  0  0  0  0  0  0
  1  2  1  0
  2  3  1  0
  2  4  1  0
  4  5  1  0
  5  6  1  0
  6  7  1  0
  6  8  1  0
  8  9  1  0
  9 10  1  0
 10 11  2  0
 11 12  1  0
 12 13  2  0
 13 14  1  0
 14 15  1  0
 15 16  1  0
 16 17  1  0
 17 18  1  0
 18 19  1  0
 19 20  1  0
 13 21  1  0
 21 22  2  0
 22 10  1  0
 20 18  1  0
  1 23  1  0
  1 24  1  0
  1 25  1  0
  2 26  1  0
  3 27  1  0
  3 28  1  0
  3 29  1  0
  4 30  1  0
  5 31  1  0
  5 32  1  0
  6 33  1  0
  7 34  1  0
  8 35  1  0
  8 36  1  0
 11 37  1  0
 12 38  1  0
 14 39  1  0
 14 40  1  0
 15 41  1  0
 15 42  1  0
 17 43  1  0
 17 44  1  0
 18 45  1  0
 19 46  1  0
 19 47  1  0
 20 48  1  0
 20 49  1  0
 21 50  1  0
 22 51  1  0
M  END
$$$$
