
     RDKit          3D

 44 46  0  0  0  0  0  0  0  0999 V2000
   -4.7251    0.8617    0.1100 C   0  0  0  0  0  0  0  0  0  0  0  0
   -4.3103    0.8796   -1.3568 C   0  0  0  0  0  0  0  0  0  0  0  0
   -2.8629    1.0379   -1.4778 N   0  0  0  0  0  0  0  0  0  0  0  0
   -2.2016    2.2875   -1.2296 C   0  0  0  0  0  0  0  0  0  0  0  0
   -2.8757    3.3478   -1.1275 O   0  0  0  0  0  0  0  0  0  0  0  0
   -0.7328    2.3649   -1.1448 C   0  0  0  0  0  0  0  0  0  0  0  0
   -0.0353    3.4512   -1.5325 N   0  0  0  0  0  0  0  0  0  0  0  0
    1.2280    3.1737   -1.3862 O   0  0  0  0  0  0  0  0  0  0  0  0
    1.3985    1.9629   -0.9089 C   0  0  0  0  0  0  0  0  0  0  0  0
    0.1539    1.3781   -0.7343 C   0  0  0  0  0  0  0  0  0  0  0  0
   -0.1436    0.0339   -0.1944 C   0  0  0  0  0  0  0  0  0  0  0  0
    0.5549   -1.0893   -0.6618 C   0  0  0  0  0  0  0  0  0  0  0  0
    0.2803   -2.3570   -0.1419 C   0  0  0  0  0  0  0  0  0  0  0  0
   -0.6912   -2.5237    0.8517 C   0  0  0  0  0  0  0  0  0  0  0  0
   -0.9325   -3.8171    1.3381 O   0  0  0  0  0  0  0  0  0  0  0  0
   -1.8915   -4.1316    2.3425 C   0  0  0  0  0  0  0  0  0  0  0  0
   -1.3876   -1.3962    1.3266 C   0  0  0  0  0  0  0  0  0  0  0  0
   -1.1109   -0.1280    0.8089 C   0  0  0  0  0  0  0  0  0  0  0  0
    2.7205    1.3710   -0.6341 C   0  0  0  0  0  0  0  0  0  0  0  0
    3.0619    0.8434    0.6323 C   0  0  0  0  0  0  0  0  0  0  0  0
    2.2105    0.9469    1.7338 O   0  0  0  0  0  0  0  0  0  0  0  0
    4.3023    0.2205    0.8102 C   0  0  0  0  0  0  0  0  0  0  0  0
    5.2237    0.1508   -0.2425 C   0  0  0  0  0  0  0  0  0  0  0  0
    6.4595   -0.4668   -0.0561 O   0  0  0  0  0  0  0  0  0  0  0  0
    4.9016    0.7104   -1.4851 C   0  0  0  0  0  0  0  0  0  0  0  0
    6.0442    0.6427   -2.8177 Cl  0  0  0  0  0  0  0  0  0  0  0  0
    3.6579    1.3203   -1.6762 C   0  0  0  0  0  0  0  0  0  0  0  0
   -5.8244    0.7251    0.1847 H   0  0  0  0  0  0  0  0  0  0  0  0
   -4.4506    1.8180    0.6028 H   0  0  0  0  0  0  0  0  0  0  0  0
   -4.2239    0.0222    0.6369 H   0  0  0  0  0  0  0  0  0  0  0  0
   -4.6157   -0.0810   -1.8254 H   0  0  0  0  0  0  0  0  0  0  0  0
   -4.8306    1.7029   -1.8920 H   0  0  0  0  0  0  0  0  0  0  0  0
   -2.3078    0.2279   -1.8339 H   0  0  0  0  0  0  0  0  0  0  0  0
    1.3036   -0.9875   -1.4376 H   0  0  0  0  0  0  0  0  0  0  0  0
    0.8236   -3.2159   -0.5151 H   0  0  0  0  0  0  0  0  0  0  0  0
   -2.9091   -3.8461    2.0015 H   0  0  0  0  0  0  0  0  0  0  0  0
   -1.6424   -3.6033    3.2870 H   0  0  0  0  0  0  0  0  0  0  0  0
   -1.8736   -5.2244    2.5314 H   0  0  0  0  0  0  0  0  0  0  0  0
   -2.1410   -1.4880    2.0969 H   0  0  0  0  0  0  0  0  0  0  0  0
   -1.6455    0.7297    1.1981 H   0  0  0  0  0  0  0  0  0  0  0  0
    1.3537    1.4846    1.7167 H   0  0  0  0  0  0  0  0  0  0  0  0
    4.5571   -0.1942    1.7775 H   0  0  0  0  0  0  0  0  0  0  0  0
    6.7181   -0.8782    0.8332 H   0  0  0  0  0  0  0  0  0  0  0  0
    3.4117    1.7328   -2.6477 H   0  0  0  0  0  0  0  0  0  0  0  0
  1  2  1  0
  2  3  1  0
  3  4  1  0
  4  5  2  0
  4  6  1  0
  6  7  2  0
  7  8  1  0
  8  9  1  0
  9 10  2  0
 10 11  1  0
 11 12  2  0
 12 13  1  0
 13 14  2  0
 14 15  1  0
 15 16  1  0
 14 17  1  0
 17 18  2  0
  9 19  1  0
 19 20  2  0
 20 21  1  0
 20 22  1  0
 22 23  2  0
 23 24  1  0
 23 25  1  0
 25 26  1  0
 25 27  2  0
 10  6  1  0
 18 11  1  0
 27 19  1  0
  1 28  1  0
  1 29  1  0
  1 30  1  0
  2 31  1  0
  2 32  1  0
  3 33  1  0
 12 34  1  0
 13 35  1  0
 16 36  1  0
 16 37  1  0
 16 38  1  0
 17 39  1  0
 18 40  1  0
 21 41  1  0
 22 42  1  0
 24 43  1  0
 27 44  1  0
M  END
$$$$
