
     RDKit          3D

219224  0  0  0  0  0  0  0  0999 V2000
   -2.6675    8.0488    0.1862 C   0  0  0  0  0  0  0  0  0  0  0  0
   -3.1183    6.9035   -0.7323 C   0  0  1  0  0  0  0  0  0  0  0  0
   -2.5178    7.0421   -1.9948 O   0  0  0  0  0  0  0  0  0  0  0  0
   -2.7962    5.5012   -0.1574 C   0  0  2  0  0  0  0  0  0  0  0  0
   -3.4589    5.2952    1.1408 N   0  0  0  0  0  0  0  0  0  0  0  0
   -4.8633    5.0433    1.3377 C   0  0  0  0  0  0  0  0  0  0  0  0
   -5.3043    5.0501    2.5187 O   0  0  0  0  0  0  0  0  0  0  0  0
   -5.8251    4.7462    0.1989 C   0  0  2  0  0  0  0  0  0  0  0  0
   -7.1267    5.5742    0.3013 C   0  0  0  0  0  0  0  0  0  0  0  0
   -6.8788    7.0329    0.0097 C   0  0  0  0  0  0  0  0  0  0  0  0
   -6.5189    7.9147    1.0431 C   0  0  0  0  0  0  0  0  0  0  0  0
   -6.2204    9.2504    0.7576 C   0  0  0  0  0  0  0  0  0  0  0  0
   -6.2769    9.7150   -0.5590 C   0  0  0  0  0  0  0  0  0  0  0  0
   -6.6335    8.8449   -1.5926 C   0  0  0  0  0  0  0  0  0  0  0  0
   -6.9319    7.5080   -1.3120 C   0  0  0  0  0  0  0  0  0  0  0  0
   -6.1256    3.3093    0.1311 N   0  0  0  0  0  0  0  0  0  0  0  0
   -6.9063    2.5885    1.1023 C   0  0  0  0  0  0  0  0  0  0  0  0
   -7.1504    3.1028    2.2272 O   0  0  0  0  0  0  0  0  0  0  0  0
   -7.5100    1.2485    0.7398 C   0  0  1  0  0  0  0  0  0  0  0  0
   -6.5331    0.3847    0.0604 N   0  0  0  0  0  0  0  0  0  0  0  0
   -5.2899   -0.0498    0.6453 C   0  0  0  0  0  0  0  0  0  0  0  0
   -4.7845    0.6120    1.5922 O   0  0  0  0  0  0  0  0  0  0  0  0
   -4.5844   -1.3227    0.2120 C   0  0  2  0  0  0  0  0  0  0  0  0
   -4.9305   -1.7941   -1.2247 C   0  0  0  0  0  0  0  0  0  0  0  0
   -6.2191   -2.6343   -1.3094 C   0  0  0  0  0  0  0  0  0  0  0  0
   -6.6415   -2.8568   -2.7670 C   0  0  0  0  0  0  0  0  0  0  0  0
   -7.9275   -3.6851   -2.8764 C   0  0  0  0  0  0  0  0  0  0  0  0
   -9.0931   -2.8895   -2.4981 N   0  0  0  0  0  0  0  0  0  0  0  0
   -4.8453   -2.3801    1.1972 N   0  0  0  0  0  0  0  0  0  0  0  0
   -3.9823   -3.4968    1.4776 C   0  0  0  0  0  0  0  0  0  0  0  0
   -4.3452   -4.3238    2.3574 O   0  0  0  0  0  0  0  0  0  0  0  0
   -2.6354   -3.6892    0.8078 C   0  0  2  0  0  0  0  0  0  0  0  0
   -2.4224   -5.1459    0.3485 C   0  0  0  0  0  0  0  0  0  0  0  0
   -3.2978   -5.4928   -0.8207 C   0  0  0  0  0  0  0  0  0  0  0  0
   -3.0638   -5.1536   -2.1499 C   0  0  0  0  0  0  0  0  0  0  0  0
   -4.0658   -5.6063   -2.9364 N   0  0  0  0  0  0  0  0  0  0  0  0
   -4.9334   -6.2217   -2.1148 C   0  0  0  0  0  0  0  0  0  0  0  0
   -4.5023   -6.1690   -0.8134 C   0  0  0  0  0  0  0  0  0  0  0  0
   -5.2416   -6.7321    0.2268 C   0  0  0  0  0  0  0  0  0  0  0  0
   -6.4562   -7.3627   -0.0968 C   0  0  0  0  0  0  0  0  0  0  0  0
   -6.8986   -7.4187   -1.4369 C   0  0  0  0  0  0  0  0  0  0  0  0
   -6.1303   -6.8439   -2.4655 C   0  0  0  0  0  0  0  0  0  0  0  0
   -1.5588   -3.2753    1.7103 N   0  0  0  0  0  0  0  0  0  0  0  0
   -1.3101   -3.9101    2.9671 C   0  0  0  0  0  0  0  0  0  0  0  0
   -1.9531   -3.5368    3.9848 O   0  0  0  0  0  0  0  0  0  0  0  0
   -0.1938   -4.9159    3.0881 C   0  0  2  0  0  0  0  0  0  0  0  0
   -0.4331   -5.9376    4.2179 C   0  0  0  0  0  0  0  0  0  0  0  0
   -1.5960   -6.8462    3.9011 C   0  0  0  0  0  0  0  0  0  0  0  0
   -2.8609   -6.6141    4.4674 C   0  0  0  0  0  0  0  0  0  0  0  0
   -3.9451   -7.4293    4.1280 C   0  0  0  0  0  0  0  0  0  0  0  0
   -3.7761   -8.4788    3.2209 C   0  0  0  0  0  0  0  0  0  0  0  0
   -2.5232   -8.7129    2.6487 C   0  0  0  0  0  0  0  0  0  0  0  0
   -1.4361   -7.9013    2.9862 C   0  0  0  0  0  0  0  0  0  0  0  0
    1.0692   -4.2060    3.3098 N   0  0  0  0  0  0  0  0  0  0  0  0
    1.9488   -3.7546    2.2622 C   0  0  0  0  0  0  0  0  0  0  0  0
    2.8838   -2.9631    2.5618 O   0  0  0  0  0  0  0  0  0  0  0  0
    1.8389   -4.2564    0.8354 C   0  0  2  0  0  0  0  0  0  0  0  0
    2.4467   -5.6670    0.6783 C   0  0  0  0  0  0  0  0  0  0  0  0
    3.9253   -5.7232    0.9825 C   0  0  0  0  0  0  0  0  0  0  0  0
    4.8707   -5.5616   -0.0454 C   0  0  0  0  0  0  0  0  0  0  0  0
    6.2382   -5.5852    0.2442 C   0  0  0  0  0  0  0  0  0  0  0  0
    6.6726   -5.7744    1.5587 C   0  0  0  0  0  0  0  0  0  0  0  0
    5.7400   -5.9415    2.5859 C   0  0  0  0  0  0  0  0  0  0  0  0
    4.3713   -5.9168    2.3011 C   0  0  0  0  0  0  0  0  0  0  0  0
    2.4714   -3.3135   -0.0952 N   0  0  0  0  0  0  0  0  0  0  0  0
    1.7241   -2.4833   -1.0011 C   0  0  0  0  0  0  0  0  0  0  0  0
    0.4641   -2.5316   -1.0190 O   0  0  0  0  0  0  0  0  0  0  0  0
    2.4350   -1.5606   -1.9602 C   0  0  2  0  0  0  0  0  0  0  0  0
    3.2892   -2.3512   -2.9679 C   0  0  0  0  0  0  0  0  0  0  0  0
    2.4367   -3.2102   -3.8568 C   0  0  0  0  0  0  0  0  0  0  0  0
    2.1791   -4.5728   -3.5185 N   0  0  0  0  0  0  0  0  0  0  0  0
    1.9123   -2.7137   -4.8892 O   0  0  0  0  0  0  0  0  0  0  0  0
    3.2779   -0.6155   -1.2217 N   0  0  0  0  0  0  0  0  0  0  0  0
    3.7041    0.6321   -1.7904 C   0  0  0  0  0  0  0  0  0  0  0  0
    3.2404    1.0113   -2.9005 O   0  0  0  0  0  0  0  0  0  0  0  0
    4.7277    1.4902   -1.0880 C   0  0  2  0  0  0  0  0  0  0  0  0
    6.0718    0.7528   -0.9345 C   0  0  0  0  0  0  0  0  0  0  0  0
    6.6876    0.3659   -2.2880 C   0  0  0  0  0  0  0  0  0  0  0  0
    8.0728   -0.2600   -2.0961 C   0  0  0  0  0  0  0  0  0  0  0  0
    8.6942   -0.6595   -3.4357 C   0  0  0  0  0  0  0  0  0  0  0  0
   10.0022   -1.2696   -3.2184 N   0  0  0  0  0  0  0  0  0  0  0  0
    4.2191    1.8922    0.2287 N   0  0  0  0  0  0  0  0  0  0  0  0
    4.1634    3.2484    0.7013 C   0  0  0  0  0  0  0  0  0  0  0  0
    3.0845    3.6655    1.2009 O   0  0  0  0  0  0  0  0  0  0  0  0
    5.3858    4.1433    0.7683 C   0  0  2  0  0  0  0  0  0  0  0  0
    5.8757    4.5718   -0.6301 C   0  0  0  0  0  0  0  0  0  0  0  0
    6.7335    6.1877   -0.5720 S   0  0  0  0  0  0  0  0  0  0  0  0
    5.4347    7.1851   -1.9544 S   0  0  0  0  0  0  0  0  0  0  0  0
    4.3205    7.8727   -0.6755 C   0  0  0  0  0  0  0  0  0  0  0  0
    3.0464    7.0241   -0.5446 C   0  0  2  0  0  0  0  0  0  0  0  0
    2.2576    7.0664   -1.7826 N   0  0  0  0  0  0  0  0  0  0  0  0
    1.1862    6.1586   -2.0972 C   0  0  0  0  0  0  0  0  0  0  0  0
    0.4972    6.3754   -3.1309 O   0  0  0  0  0  0  0  0  0  0  0  0
    0.8891    4.9271   -1.2688 C   0  0  2  0  0  0  0  0  0  0  0  0
    1.5370    3.6781   -1.8847 C   0  0  0  0  0  0  0  0  0  0  0  0
    1.0077    3.3979   -3.1543 O   0  0  0  0  0  0  0  0  0  0  0  0
   -0.5611    4.7476   -1.1418 N   0  0  0  0  0  0  0  0  0  0  0  0
   -1.2999    5.2987   -0.0403 C   0  0  0  0  0  0  0  0  0  0  0  0
   -0.6911    5.6810    0.9968 O   0  0  0  0  0  0  0  0  0  0  0  0
    2.2216    7.5223    0.6070 C   0  0  0  0  0  0  0  0  0  0  0  0
    2.2596    6.8497    1.8244 O   0  0  0  0  0  0  0  0  0  0  0  0
    1.5214    8.5637    0.4861 O   0  0  0  0  0  0  0  0  0  0  0  0
    6.4514    3.4711    1.5219 N   0  0  0  0  0  0  0  0  0  0  0  0
    7.5265    4.1700    2.1649 C   0  0  0  0  0  0  0  0  0  0  0  0
    7.4740    5.4186    2.3271 O   0  0  0  0  0  0  0  0  0  0  0  0
    8.7025    3.4033    2.6919 C   0  0  0  0  0  0  0  0  0  0  0  0
    9.3040    2.5871    1.6371 N   0  0  0  0  0  0  0  0  0  0  0  0
   10.3436    1.6423    1.9228 C   0  0  0  0  0  0  0  0  0  0  0  0
   10.7968    1.5348    3.0956 O   0  0  0  0  0  0  0  0  0  0  0  0
   10.8487    0.7266    0.8392 C   0  0  2  0  0  0  0  0  0  0  0  0
   10.1168   -0.6148    0.9194 C   0  0  0  0  0  0  0  0  0  0  0  0
   12.2911    0.5223    0.9780 N   0  0  0  0  0  0  0  0  0  0  0  0
   -8.1746    0.5287    1.9429 C   0  0  1  0  0  0  0  0  0  0  0  0
   -8.8637   -0.7721    1.5149 C   0  0  0  0  0  0  0  0  0  0  0  0
   -7.2253    0.2575    2.9417 O   0  0  0  0  0  0  0  0  0  0  0  0
   -3.0111    9.0185   -0.2324 H   0  0  0  0  0  0  0  0  0  0  0  0
   -1.5609    8.0793    0.2678 H   0  0  0  0  0  0  0  0  0  0  0  0
   -3.1101    7.9379    1.1983 H   0  0  0  0  0  0  0  0  0  0  0  0
   -4.2176    6.9856   -0.8480 H   0  0  0  0  0  0  0  0  0  0  0  0
   -2.9747    7.7960   -2.4522 H   0  0  0  0  0  0  0  0  0  0  0  0
   -3.1658    4.7301   -0.8663 H   0  0  0  0  0  0  0  0  0  0  0  0
   -2.8976    5.4224    2.0136 H   0  0  0  0  0  0  0  0  0  0  0  0
   -5.3606    5.0209   -0.7677 H   0  0  0  0  0  0  0  0  0  0  0  0
   -7.5903    5.4675    1.3054 H   0  0  0  0  0  0  0  0  0  0  0  0
   -7.8666    5.1789   -0.4294 H   0  0  0  0  0  0  0  0  0  0  0  0
   -6.4598    7.5665    2.0665 H   0  0  0  0  0  0  0  0  0  0  0  0
   -5.9389    9.9239    1.5567 H   0  0  0  0  0  0  0  0  0  0  0  0
   -6.0411   10.7481   -0.7786 H   0  0  0  0  0  0  0  0  0  0  0  0
   -6.6710    9.2044   -2.6128 H   0  0  0  0  0  0  0  0  0  0  0  0
   -7.1881    6.8398   -2.1248 H   0  0  0  0  0  0  0  0  0  0  0  0
   -5.8472    2.8076   -0.7424 H   0  0  0  0  0  0  0  0  0  0  0  0
   -8.3238    1.4762    0.0153 H   0  0  0  0  0  0  0  0  0  0  0  0
   -6.7672    0.1076   -0.9169 H   0  0  0  0  0  0  0  0  0  0  0  0
   -3.5018   -1.0718    0.2282 H   0  0  0  0  0  0  0  0  0  0  0  0
   -4.9880   -0.9132   -1.9001 H   0  0  0  0  0  0  0  0  0  0  0  0
   -4.0986   -2.4144   -1.6168 H   0  0  0  0  0  0  0  0  0  0  0  0
   -6.0456   -3.6210   -0.8280 H   0  0  0  0  0  0  0  0  0  0  0  0
   -7.0377   -2.1327   -0.7618 H   0  0  0  0  0  0  0  0  0  0  0  0
   -6.7921   -1.8781   -3.2734 H   0  0  0  0  0  0  0  0  0  0  0  0
   -5.8274   -3.3943   -3.2994 H   0  0  0  0  0  0  0  0  0  0  0  0
   -7.8628   -4.5967   -2.2426 H   0  0  0  0  0  0  0  0  0  0  0  0
   -8.0409   -4.0132   -3.9331 H   0  0  0  0  0  0  0  0  0  0  0  0
   -9.1443   -2.8522   -1.4544 H   0  0  0  0  0  0  0  0  0  0  0  0
   -9.9464   -3.4073   -2.8099 H   0  0  0  0  0  0  0  0  0  0  0  0
   -5.7551   -2.3518    1.7126 H   0  0  0  0  0  0  0  0  0  0  0  0
   -2.5607   -3.0614   -0.0996 H   0  0  0  0  0  0  0  0  0  0  0  0
   -2.5988   -5.8553    1.1838 H   0  0  0  0  0  0  0  0  0  0  0  0
   -1.3675   -5.2771    0.0278 H   0  0  0  0  0  0  0  0  0  0  0  0
   -2.2087   -4.6017   -2.5184 H   0  0  0  0  0  0  0  0  0  0  0  0
   -4.1489   -5.4918   -3.9710 H   0  0  0  0  0  0  0  0  0  0  0  0
   -4.8993   -6.6893    1.2505 H   0  0  0  0  0  0  0  0  0  0  0  0
   -7.0549   -7.8085    0.6867 H   0  0  0  0  0  0  0  0  0  0  0  0
   -7.8356   -7.9052   -1.6742 H   0  0  0  0  0  0  0  0  0  0  0  0
   -6.4635   -6.8766   -3.4947 H   0  0  0  0  0  0  0  0  0  0  0  0
   -0.8736   -2.5591    1.3815 H   0  0  0  0  0  0  0  0  0  0  0  0
   -0.1405   -5.5011    2.1514 H   0  0  0  0  0  0  0  0  0  0  0  0
   -0.5926   -5.4162    5.1875 H   0  0  0  0  0  0  0  0  0  0  0  0
    0.4807   -6.5602    4.3401 H   0  0  0  0  0  0  0  0  0  0  0  0
   -3.0097   -5.8007    5.1661 H   0  0  0  0  0  0  0  0  0  0  0  0
   -4.9180   -7.2440    4.5643 H   0  0  0  0  0  0  0  0  0  0  0  0
   -4.6180   -9.1048    2.9549 H   0  0  0  0  0  0  0  0  0  0  0  0
   -2.3955   -9.5204    1.9395 H   0  0  0  0  0  0  0  0  0  0  0  0
   -0.4727   -8.0861    2.5270 H   0  0  0  0  0  0  0  0  0  0  0  0
    1.2554   -3.8459    4.2739 H   0  0  0  0  0  0  0  0  0  0  0  0
    0.7693   -4.3380    0.5702 H   0  0  0  0  0  0  0  0  0  0  0  0
    1.9106   -6.3803    1.3412 H   0  0  0  0  0  0  0  0  0  0  0  0
    2.2658   -6.0210   -0.3600 H   0  0  0  0  0  0  0  0  0  0  0  0
    4.5491   -5.4084   -1.0678 H   0  0  0  0  0  0  0  0  0  0  0  0
    6.9612   -5.4546   -0.5506 H   0  0  0  0  0  0  0  0  0  0  0  0
    7.7316   -5.7915    1.7814 H   0  0  0  0  0  0  0  0  0  0  0  0
    6.0775   -6.0881    3.6038 H   0  0  0  0  0  0  0  0  0  0  0  0
    3.6595   -6.0442    3.1074 H   0  0  0  0  0  0  0  0  0  0  0  0
    3.5077   -3.1929   -0.0540 H   0  0  0  0  0  0  0  0  0  0  0  0
    1.6636   -0.9849   -2.5211 H   0  0  0  0  0  0  0  0  0  0  0  0
    3.8584   -1.6417   -3.6066 H   0  0  0  0  0  0  0  0  0  0  0  0
    4.0361   -2.9796   -2.4362 H   0  0  0  0  0  0  0  0  0  0  0  0
    1.5671   -5.1602   -4.1271 H   0  0  0  0  0  0  0  0  0  0  0  0
    2.5926   -4.9961   -2.6590 H   0  0  0  0  0  0  0  0  0  0  0  0
    3.6551   -0.8876   -0.2867 H   0  0  0  0  0  0  0  0  0  0  0  0
    4.8886    2.3852   -1.7184 H   0  0  0  0  0  0  0  0  0  0  0  0
    5.9403   -0.1569   -0.3089 H   0  0  0  0  0  0  0  0  0  0  0  0
    6.7854    1.4196   -0.4092 H   0  0  0  0  0  0  0  0  0  0  0  0
    6.7795    1.2735   -2.9245 H   0  0  0  0  0  0  0  0  0  0  0  0
    6.0275   -0.3647   -2.8039 H   0  0  0  0  0  0  0  0  0  0  0  0
    8.7383    0.4743   -1.5931 H   0  0  0  0  0  0  0  0  0  0  0  0
    7.9859   -1.1627   -1.4521 H   0  0  0  0  0  0  0  0  0  0  0  0
    8.0313   -1.3928   -3.9457 H   0  0  0  0  0  0  0  0  0  0  0  0
    8.8001    0.2363   -4.0882 H   0  0  0  0  0  0  0  0  0  0  0  0
   10.3645   -1.5844   -4.1475 H   0  0  0  0  0  0  0  0  0  0  0  0
   10.6578   -0.5278   -2.8798 H   0  0  0  0  0  0  0  0  0  0  0  0
    3.7260    1.1780    0.8105 H   0  0  0  0  0  0  0  0  0  0  0  0
    5.0813    5.0574    1.3265 H   0  0  0  0  0  0  0  0  0  0  0  0
    6.5931    3.8248   -1.0294 H   0  0  0  0  0  0  0  0  0  0  0  0
    5.0207    4.6266   -1.3342 H   0  0  0  0  0  0  0  0  0  0  0  0
    4.8434    7.9342    0.3033 H   0  0  0  0  0  0  0  0  0  0  0  0
    4.0520    8.9100   -0.9701 H   0  0  0  0  0  0  0  0  0  0  0  0
    3.3580    5.9819   -0.3414 H   0  0  0  0  0  0  0  0  0  0  0  0
    2.4281    7.8476   -2.4569 H   0  0  0  0  0  0  0  0  0  0  0  0
    1.3194    5.0361   -0.2560 H   0  0  0  0  0  0  0  0  0  0  0  0
    2.6427    3.8096   -1.9359 H   0  0  0  0  0  0  0  0  0  0  0  0
    1.3420    2.8074   -1.2228 H   0  0  0  0  0  0  0  0  0  0  0  0
    1.5642    3.8888   -3.8135 H   0  0  0  0  0  0  0  0  0  0  0  0
   -1.0953    4.4022   -1.9714 H   0  0  0  0  0  0  0  0  0  0  0  0
    1.7156    7.1748    2.6145 H   0  0  0  0  0  0  0  0  0  0  0  0
    6.4360    2.4307    1.6167 H   0  0  0  0  0  0  0  0  0  0  0  0
    8.3516    2.7462    3.5161 H   0  0  0  0  0  0  0  0  0  0  0  0
    9.4668    4.1019    3.0962 H   0  0  0  0  0  0  0  0  0  0  0  0
    8.9612    2.6712    0.6524 H   0  0  0  0  0  0  0  0  0  0  0  0
   10.6429    1.1848   -0.1543 H   0  0  0  0  0  0  0  0  0  0  0  0
   10.4248   -1.2670    0.0746 H   0  0  0  0  0  0  0  0  0  0  0  0
   10.3521   -1.1304    1.8752 H   0  0  0  0  0  0  0  0  0  0  0  0
    9.0183   -0.4579    0.8566 H   0  0  0  0  0  0  0  0  0  0  0  0
   12.7648    1.4489    0.8680 H   0  0  0  0  0  0  0  0  0  0  0  0
   12.6188   -0.0648    0.1763 H   0  0  0  0  0  0  0  0  0  0  0  0
   -8.9623    1.2055    2.3511 H   0  0  0  0  0  0  0  0  0  0  0  0
   -9.4588   -1.1766    2.3608 H   0  0  0  0  0  0  0  0  0  0  0  0
   -9.5497   -0.5883    0.6608 H   0  0  0  0  0  0  0  0  0  0  0  0
   -8.1129   -1.5342    1.2251 H   0  0  0  0  0  0  0  0  0  0  0  0
   -7.7296    0.0780    3.7779 H   0  0  0  0  0  0  0  0  0  0  0  0
  1  2  1  0
  2  3  1  0
  2  4  1  0
  4  5  1  0
  5  6  1  0
  6  7  2  0
  6  8  1  0
  8  9  1  0
  9 10  1  0
 10 11  2  0
 11 12  1  0
 12 13  2  0
 13 14  1  0
 14 15  2  0
  8 16  1  0
 16 17  1  0
 17 18  2  0
 17 19  1  0
 19 20  1  0
 20 21  1  0
 21 22  2  0
 21 23  1  0
 23 24  1  0
 24 25  1  0
 25 26  1  0
 26 27  1  0
 27 28  1  0
 23 29  1  0
 29 30  1  0
 30 31  2  0
 30 32  1  0
 32 33  1  0
 33 34  1  0
 34 35  2  0
 35 36  1  0
 36 37  1  0
 37 38  2  0
 38 39  1  0
 39 40  2  0
 40 41  1  0
 41 42  2  0
 32 43  1  0
 43 44  1  0
 44 45  2  0
 44 46  1  0
 46 47  1  0
 47 48  1  0
 48 49  2  0
 49 50  1  0
 50 51  2  0
 51 52  1  0
 52 53  2  0
 46 54  1  0
 54 55  1  0
 55 56  2  0
 55 57  1  0
 57 58  1  0
 58 59  1  0
 59 60  2  0
 60 61  1  0
 61 62  2  0
 62 63  1  0
 63 64  2  0
 57 65  1  0
 65 66  1  0
 66 67  2  0
 66 68  1  0
 68 69  1  0
 69 70  1  0
 70 71  1  0
 70 72  2  0
 68 73  1  0
 73 74  1  0
 74 75  2  0
 74 76  1  0
 76 77  1  0
 77 78  1  0
 78 79  1  0
 79 80  1  0
 80 81  1  0
 76 82  1  0
 82 83  1  0
 83 84  2  0
 83 85  1  0
 85 86  1  0
 86 87  1  0
 87 88  1  0
 88 89  1  0
 89 90  1  0
 90 91  1  0
 91 92  1  0
 92 93  2  0
 92 94  1  0
 94 95  1  0
 95 96  1  0
 94 97  1  0
 97 98  1  0
 98 99  2  0
 90100  1  0
100101  1  0
100102  2  0
 85103  1  0
103104  1  0
104105  2  0
104106  1  0
106107  1  0
107108  1  0
108109  2  0
108110  1  0
110111  1  0
110112  1  0
 19113  1  0
113114  1  0
113115  1  0
 98  4  1  0
 15 10  1  0
 38 34  1  0
 53 48  1  0
 64 59  1  0
 42 37  1  0
  1116  1  0
  1117  1  0
  1118  1  0
  2119  1  6
  3120  1  0
  4121  1  6
  5122  1  0
  8123  1  6
  9124  1  0
  9125  1  0
 11126  1  0
 12127  1  0
 13128  1  0
 14129  1  0
 15130  1  0
 16131  1  0
 19132  1  6
 20133  1  0
 23134  1  6
 24135  1  0
 24136  1  0
 25137  1  0
 25138  1  0
 26139  1  0
 26140  1  0
 27141  1  0
 27142  1  0
 28143  1  0
 28144  1  0
 29145  1  0
 32146  1  6
 33147  1  0
 33148  1  0
 35149  1  0
 36150  1  0
 39151  1  0
 40152  1  0
 41153  1  0
 42154  1  0
 43155  1  0
 46156  1  6
 47157  1  0
 47158  1  0
 49159  1  0
 50160  1  0
 51161  1  0
 52162  1  0
 53163  1  0
 54164  1  0
 57165  1  6
 58166  1  0
 58167  1  0
 60168  1  0
 61169  1  0
 62170  1  0
 63171  1  0
 64172  1  0
 65173  1  0
 68174  1  6
 69175  1  0
 69176  1  0
 71177  1  0
 71178  1  0
 73179  1  0
 76180  1  6
 77181  1  0
 77182  1  0
 78183  1  0
 78184  1  0
 79185  1  0
 79186  1  0
 80187  1  0
 80188  1  0
 81189  1  0
 81190  1  0
 82191  1  0
 85192  1  1
 86193  1  0
 86194  1  0
 89195  1  0
 89196  1  0
 90197  1  1
 91198  1  0
 94199  1  1
 95200  1  0
 95201  1  0
 96202  1  0
 97203  1  0
101204  1  0
103205  1  0
106206  1  0
106207  1  0
107208  1  0
110209  1  6
111210  1  0
111211  1  0
111212  1  0
112213  1  0
112214  1  0
113215  1  1
114216  1  0
114217  1  0
114218  1  0
115219  1  0
M  END
$$$$
