
     RDKit          3D

 63 66  0  0  0  0  0  0  0  0999 V2000
    3.4765    0.6300   -2.9723 C   0  0  1  0  0  0  0  0  0  0  0  0
    2.9253    1.5390   -3.9793 N   0  0  0  0  0  0  0  0  0  0  0  0
    4.0658    1.4137   -1.7788 C   0  0  0  0  0  0  0  0  0  0  0  0
    4.7131    0.4949   -0.7731 C   0  0  0  0  0  0  0  0  0  0  0  0
    4.0191    0.1056    0.3829 C   0  0  0  0  0  0  0  0  0  0  0  0
    4.6044   -0.7762    1.2959 C   0  0  0  0  0  0  0  0  0  0  0  0
    5.8959   -1.2860    1.0619 C   0  0  0  0  0  0  0  0  0  0  0  0
    6.5262   -2.1735    1.9467 O   0  0  0  0  0  0  0  0  0  0  0  0
    5.9451   -2.6508    3.1558 C   0  0  0  0  0  0  0  0  0  0  0  0
    6.5829   -0.8997   -0.0948 C   0  0  0  0  0  0  0  0  0  0  0  0
    5.9972   -0.0190   -1.0087 C   0  0  0  0  0  0  0  0  0  0  0  0
    2.4136   -0.3478   -2.5373 C   0  0  0  0  0  0  0  0  0  0  0  0
    2.5666   -1.5738   -2.7907 O   0  0  0  0  0  0  0  0  0  0  0  0
    1.2376    0.1026   -1.8469 N   0  0  0  0  0  0  0  0  0  0  0  0
    0.1591   -0.8219   -1.4714 C   0  0  2  0  0  0  0  0  0  0  0  0
   -0.8576   -0.9353   -2.6189 C   0  0  1  0  0  0  0  0  0  0  0  0
   -1.2521   -2.3907   -2.9001 C   0  0  0  0  0  0  0  0  0  0  0  0
   -1.8659   -2.9584   -1.7756 O   0  0  0  0  0  0  0  0  0  0  0  0
   -2.0151   -0.1872   -2.3012 O   0  0  0  0  0  0  0  0  0  0  0  0
   -1.7761    0.4721   -1.0781 C   0  0  1  0  0  0  0  0  0  0  0  0
   -3.0024    0.5194   -0.2804 N   0  0  0  0  0  0  0  0  0  0  0  0
   -3.9801   -0.4178   -0.1929 C   0  0  0  0  0  0  0  0  0  0  0  0
   -4.9353   -0.1117    0.7258 N   0  0  0  0  0  0  0  0  0  0  0  0
   -4.5141    1.0650    1.2306 C   0  0  0  0  0  0  0  0  0  0  0  0
   -5.0699    1.8677    2.2381 C   0  0  0  0  0  0  0  0  0  0  0  0
   -4.3791    3.0057    2.5633 N   0  0  0  0  0  0  0  0  0  0  0  0
   -3.2055    3.3509    1.9456 C   0  0  0  0  0  0  0  0  0  0  0  0
   -2.6786    2.5576    0.9686 N   0  0  0  0  0  0  0  0  0  0  0  0
   -3.3534    1.4334    0.6324 C   0  0  0  0  0  0  0  0  0  0  0  0
   -6.3026    1.5502    2.9301 N   0  0  0  0  0  0  0  0  0  0  0  0
   -7.1106    0.3769    2.5774 C   0  0  0  0  0  0  0  0  0  0  0  0
   -6.7554    2.4414    4.0048 C   0  0  0  0  0  0  0  0  0  0  0  0
   -0.6835   -0.2779   -0.3387 C   0  0  2  0  0  0  0  0  0  0  0  0
    0.0308    0.5753    0.5178 O   0  0  0  0  0  0  0  0  0  0  0  0
    4.3044    0.0567   -3.4489 H   0  0  0  0  0  0  0  0  0  0  0  0
    3.7082    2.1041   -4.3820 H   0  0  0  0  0  0  0  0  0  0  0  0
    2.2644    2.2107   -3.5251 H   0  0  0  0  0  0  0  0  0  0  0  0
    4.8300    2.1288   -2.1547 H   0  0  0  0  0  0  0  0  0  0  0  0
    3.2769    2.0252   -1.2889 H   0  0  0  0  0  0  0  0  0  0  0  0
    3.0233    0.4829    0.5759 H   0  0  0  0  0  0  0  0  0  0  0  0
    4.0442   -1.0564    2.1774 H   0  0  0  0  0  0  0  0  0  0  0  0
    5.7301   -1.8010    3.8376 H   0  0  0  0  0  0  0  0  0  0  0  0
    5.0114   -3.2103    2.9358 H   0  0  0  0  0  0  0  0  0  0  0  0
    6.6601   -3.3355    3.6561 H   0  0  0  0  0  0  0  0  0  0  0  0
    7.5751   -1.2874   -0.2882 H   0  0  0  0  0  0  0  0  0  0  0  0
    6.5426    0.2599   -1.9018 H   0  0  0  0  0  0  0  0  0  0  0  0
    1.0867    1.1308   -1.7375 H   0  0  0  0  0  0  0  0  0  0  0  0
    0.5909   -1.8039   -1.1717 H   0  0  0  0  0  0  0  0  0  0  0  0
   -0.4239   -0.5233   -3.5577 H   0  0  0  0  0  0  0  0  0  0  0  0
   -0.3448   -2.9753   -3.1732 H   0  0  0  0  0  0  0  0  0  0  0  0
   -1.9568   -2.4147   -3.7613 H   0  0  0  0  0  0  0  0  0  0  0  0
   -2.0913   -3.8915   -2.0269 H   0  0  0  0  0  0  0  0  0  0  0  0
   -1.4422    1.5106   -1.3045 H   0  0  0  0  0  0  0  0  0  0  0  0
   -3.9953   -1.3266   -0.7801 H   0  0  0  0  0  0  0  0  0  0  0  0
   -2.6926    4.2573    2.2360 H   0  0  0  0  0  0  0  0  0  0  0  0
   -8.0398    0.3180    3.1819 H   0  0  0  0  0  0  0  0  0  0  0  0
   -7.4101    0.4326    1.5098 H   0  0  0  0  0  0  0  0  0  0  0  0
   -6.5297   -0.5503    2.7642 H   0  0  0  0  0  0  0  0  0  0  0  0
   -5.9827    2.4902    4.8010 H   0  0  0  0  0  0  0  0  0  0  0  0
   -7.7016    2.0900    4.4669 H   0  0  0  0  0  0  0  0  0  0  0  0
   -6.9275    3.4607    3.5988 H   0  0  0  0  0  0  0  0  0  0  0  0
   -1.1286   -1.1243    0.2373 H   0  0  0  0  0  0  0  0  0  0  0  0
    0.5965   -0.0101    1.0855 H   0  0  0  0  0  0  0  0  0  0  0  0
  1  2  1  0
  1  3  1  0
  3  4  1  0
  4  5  2  0
  5  6  1  0
  6  7  2  0
  7  8  1  0
  8  9  1  0
  7 10  1  0
 10 11  2  0
  1 12  1  0
 12 13  2  0
 12 14  1  0
 14 15  1  0
 15 16  1  0
 16 17  1  0
 17 18  1  0
 16 19  1  0
 19 20  1  0
 20 21  1  0
 21 22  1  0
 22 23  2  0
 23 24  1  0
 24 25  2  0
 25 26  1  0
 26 27  2  0
 27 28  1  0
 28 29  2  0
 25 30  1  0
 30 31  1  0
 30 32  1  0
 20 33  1  0
 33 34  1  0
 11  4  1  0
 33 15  1  0
 29 21  1  0
 29 24  1  0
  1 35  1  6
  2 36  1  0
  2 37  1  0
  3 38  1  0
  3 39  1  0
  5 40  1  0
  6 41  1  0
  9 42  1  0
  9 43  1  0
  9 44  1  0
 10 45  1  0
 11 46  1  0
 14 47  1  0
 15 48  1  1
 16 49  1  6
 17 50  1  0
 17 51  1  0
 18 52  1  0
 20 53  1  6
 22 54  1  0
 27 55  1  0
 31 56  1  0
 31 57  1  0
 31 58  1  0
 32 59  1  0
 32 60  1  0
 32 61  1  0
 33 62  1  1
 34 63  1  0
M  END
$$$$
