
     RDKit          3D

 32 32  0  0  0  0  0  0  0  0999 V2000
   -1.9025   -1.4991   -0.9582 C   0  0  0  0  0  0  0  0  0  0  0  0
   -2.3565   -0.0474   -1.1615 C   0  0  0  0  0  0  0  0  0  0  0  0
   -2.7065    0.1745   -2.6404 C   0  0  0  0  0  0  0  0  0  0  0  0
   -1.2817    0.8726   -0.7416 N   0  0  0  0  0  0  0  0  0  0  0  0
   -1.3420    1.1657    0.6997 C   0  0  0  0  0  0  0  0  0  0  0  0
    0.0120    1.6928    1.2033 C   0  0  0  0  0  0  0  0  0  0  0  0
    0.3896    2.8478    0.4973 O   0  0  0  0  0  0  0  0  0  0  0  0
    1.0788    0.6269    1.0719 C   0  0  0  0  0  0  0  0  0  0  0  0
    1.7692    0.4376   -0.1398 C   0  0  0  0  0  0  0  0  0  0  0  0
    2.7160   -0.5886   -0.2670 C   0  0  0  0  0  0  0  0  0  0  0  0
    3.4013   -0.7712   -1.4669 O   0  0  0  0  0  0  0  0  0  0  0  0
    2.9738   -1.4390    0.8152 C   0  0  0  0  0  0  0  0  0  0  0  0
    3.9169   -2.4569    0.6856 O   0  0  0  0  0  0  0  0  0  0  0  0
    2.2799   -1.2638    2.0194 C   0  0  0  0  0  0  0  0  0  0  0  0
    1.3343   -0.2429    2.1451 C   0  0  0  0  0  0  0  0  0  0  0  0
   -1.7049   -1.7055    0.1135 H   0  0  0  0  0  0  0  0  0  0  0  0
   -0.9718   -1.6972   -1.5323 H   0  0  0  0  0  0  0  0  0  0  0  0
   -2.6930   -2.2017   -1.2985 H   0  0  0  0  0  0  0  0  0  0  0  0
   -3.2839    0.1292   -0.5687 H   0  0  0  0  0  0  0  0  0  0  0  0
   -1.8073    0.0351   -3.2785 H   0  0  0  0  0  0  0  0  0  0  0  0
   -3.0965    1.2038   -2.7902 H   0  0  0  0  0  0  0  0  0  0  0  0
   -3.4940   -0.5396   -2.9633 H   0  0  0  0  0  0  0  0  0  0  0  0
   -1.3818    1.7871   -1.2430 H   0  0  0  0  0  0  0  0  0  0  0  0
   -1.6022    0.2587    1.2883 H   0  0  0  0  0  0  0  0  0  0  0  0
   -2.1316    1.9252    0.8989 H   0  0  0  0  0  0  0  0  0  0  0  0
   -0.0978    1.9549    2.2821 H   0  0  0  0  0  0  0  0  0  0  0  0
   -0.2108    3.5789    0.7990 H   0  0  0  0  0  0  0  0  0  0  0  0
    1.5679    1.0807   -0.9875 H   0  0  0  0  0  0  0  0  0  0  0  0
    3.2353   -0.1739   -2.2685 H   0  0  0  0  0  0  0  0  0  0  0  0
    4.1237   -3.0884    1.4507 H   0  0  0  0  0  0  0  0  0  0  0  0
    2.4686   -1.9226    2.8575 H   0  0  0  0  0  0  0  0  0  0  0  0
    0.7976   -0.1336    3.0794 H   0  0  0  0  0  0  0  0  0  0  0  0
  1  2  1  0
  2  3  1  0
  2  4  1  0
  4  5  1  0
  5  6  1  0
  6  7  1  0
  6  8  1  0
  8  9  2  0
  9 10  1  0
 10 11  1  0
 10 12  2  0
 12 13  1  0
 12 14  1  0
 14 15  2  0
 15  8  1  0
  1 16  1  0
  1 17  1  0
  1 18  1  0
  2 19  1  0
  3 20  1  0
  3 21  1  0
  3 22  1  0
  4 23  1  0
  5 24  1  0
  5 25  1  0
  6 26  1  0
  7 27  1  0
  9 28  1  0
 11 29  1  0
 13 30  1  0
 14 31  1  0
 15 32  1  0
M  END
$$$$
