
     RDKit          3D

120126  0  0  0  0  0  0  0  0999 V2000
    6.1239    1.5085   -0.4630 C   0  0  2  0  0  0  0  0  0  0  0  0
    6.5998    2.3341   -1.7007 C   0  0  0  0  0  0  0  0  0  0  0  0
    7.0404    1.4813   -2.9426 C   0  0  2  0  0  0  0  0  0  0  0  0
    6.1264    1.7849   -4.1482 C   0  0  0  0  0  0  0  0  0  0  0  0
    6.9434   -0.0390   -2.6360 C   0  0  0  0  0  0  0  0  0  0  0  0
    7.6403   -0.4296   -1.3232 C   0  0  0  0  0  0  0  0  0  0  0  0
    7.2185    0.4359   -0.0737 C   0  0  1  0  0  0  0  0  0  0  0  0
    8.4908    1.1799    0.4305 C   0  0  0  0  0  0  0  0  0  0  0  0
    6.7455   -0.4906    1.1104 C   0  0  0  0  0  0  0  0  0  0  0  0
    5.3160   -0.2333    1.6030 C   0  0  0  0  0  0  0  0  0  0  0  0
    4.2529   -0.1383    0.4650 C   0  0  2  0  0  0  0  0  0  0  0  0
    4.2391   -1.5077   -0.2928 C   0  0  0  0  0  0  0  0  0  0  0  0
    4.6948    0.9228   -0.5530 C   0  0  0  0  0  0  0  0  0  0  0  0
    3.7545    1.4670   -1.3654 C   0  0  0  0  0  0  0  0  0  0  0  0
    2.3092    1.1728   -1.2538 C   0  0  0  0  0  0  0  0  0  0  0  0
    1.5416    1.6826   -2.1105 O   0  0  0  0  0  0  0  0  0  0  0  0
    1.7721    0.2659   -0.1532 C   0  0  2  0  0  0  0  0  0  0  0  0
    0.2237    0.4064    0.2134 C   0  0  1  0  0  0  0  0  0  0  0  0
   -0.1187    1.8748    0.6219 C   0  0  0  0  0  0  0  0  0  0  0  0
   -0.6468    0.0185   -1.0322 C   0  0  0  0  0  0  0  0  0  0  0  0
   -2.1420   -0.1535   -0.7274 C   0  0  0  0  0  0  0  0  0  0  0  0
   -2.4019   -1.1941    0.3703 C   0  0  2  0  0  0  0  0  0  0  0  0
   -3.7941   -1.2293    0.6430 O   0  0  0  0  0  0  0  0  0  0  0  0
   -4.4682   -2.2224   -0.1090 C   0  0  1  0  0  0  0  0  0  0  0  0
   -4.3700   -3.4566    0.5821 O   0  0  0  0  0  0  0  0  0  0  0  0
   -4.8392   -4.5488   -0.2040 C   0  0  1  0  0  0  0  0  0  0  0  0
   -6.1194   -4.2196   -1.0246 C   0  0  1  0  0  0  0  0  0  0  0  0
   -6.9414   -5.3580   -1.0887 O   0  0  0  0  0  0  0  0  0  0  0  0
   -6.8691   -3.0596   -0.3535 C   0  0  2  0  0  0  0  0  0  0  0  0
   -8.0366   -2.7677   -1.0776 O   0  0  0  0  0  0  0  0  0  0  0  0
   -5.9598   -1.8118   -0.2876 C   0  0  1  0  0  0  0  0  0  0  0  0
   -6.3967   -0.9954    0.7906 O   0  0  0  0  0  0  0  0  0  0  0  0
   -6.1856    0.3871    0.5386 C   0  0  2  0  0  0  0  0  0  0  0  0
   -5.7129    0.9703    1.7437 O   0  0  0  0  0  0  0  0  0  0  0  0
   -5.6462    2.3781    1.6195 C   0  0  1  0  0  0  0  0  0  0  0  0
   -7.0724    2.9846    1.6293 C   0  0  1  0  0  0  0  0  0  0  0  0
   -7.0907    4.1222    0.8046 O   0  0  0  0  0  0  0  0  0  0  0  0
   -8.1197    1.9512    1.1356 C   0  0  2  0  0  0  0  0  0  0  0  0
   -8.5580    1.1611    2.2127 O   0  0  0  0  0  0  0  0  0  0  0  0
   -7.5238    1.0305    0.0562 C   0  0  1  0  0  0  0  0  0  0  0  0
   -7.3073    1.7771   -1.1144 O   0  0  0  0  0  0  0  0  0  0  0  0
   -4.8218    2.9308    2.7441 C   0  0  0  0  0  0  0  0  0  0  0  0
   -3.8775    3.9206    2.4897 O   0  0  0  0  0  0  0  0  0  0  0  0
   -4.9972    2.5181    3.9223 O   0  0  0  0  0  0  0  0  0  0  0  0
   -3.7410   -5.1045   -1.0736 C   0  0  0  0  0  0  0  0  0  0  0  0
   -4.0386   -6.0629   -2.0382 O   0  0  0  0  0  0  0  0  0  0  0  0
   -2.5450   -4.7469   -0.8986 O   0  0  0  0  0  0  0  0  0  0  0  0
   -1.6210   -0.8788    1.6863 C   0  0  0  0  0  0  0  0  0  0  0  0
   -2.2494    0.3266    2.4343 C   0  0  0  0  0  0  0  0  0  0  0  0
   -1.7836   -2.1187    2.6112 C   0  0  0  0  0  0  0  0  0  0  0  0
   -0.0927   -0.6651    1.3333 C   0  0  2  0  0  0  0  0  0  0  0  0
    0.8472   -0.5239    2.5550 C   0  0  0  0  0  0  0  0  0  0  0  0
    2.3128   -0.7332    2.1450 C   0  0  0  0  0  0  0  0  0  0  0  0
    2.8004    0.2646    1.0522 C   0  0  1  0  0  0  0  0  0  0  0  0
    2.8913    1.6787    1.7294 C   0  0  0  0  0  0  0  0  0  0  0  0
    8.4543    1.8709   -3.3573 C   0  0  0  0  0  0  0  0  0  0  0  0
    8.7881    3.2174   -3.4862 O   0  0  0  0  0  0  0  0  0  0  0  0
    9.3143    0.9960   -3.6513 O   0  0  0  0  0  0  0  0  0  0  0  0
    6.0609    2.2401    0.3738 H   0  0  0  0  0  0  0  0  0  0  0  0
    7.4436    2.9662   -1.3547 H   0  0  0  0  0  0  0  0  0  0  0  0
    5.8743    3.1247   -1.9725 H   0  0  0  0  0  0  0  0  0  0  0  0
    6.4783    1.2393   -5.0510 H   0  0  0  0  0  0  0  0  0  0  0  0
    6.1249    2.8722   -4.3801 H   0  0  0  0  0  0  0  0  0  0  0  0
    5.0819    1.4678   -3.9525 H   0  0  0  0  0  0  0  0  0  0  0  0
    5.8790   -0.3507   -2.5784 H   0  0  0  0  0  0  0  0  0  0  0  0
    7.3790   -0.6325   -3.4702 H   0  0  0  0  0  0  0  0  0  0  0  0
    8.7380   -0.3782   -1.4924 H   0  0  0  0  0  0  0  0  0  0  0  0
    7.4541   -1.5118   -1.1729 H   0  0  0  0  0  0  0  0  0  0  0  0
    8.9935    1.7495   -0.3771 H   0  0  0  0  0  0  0  0  0  0  0  0
    8.2405    1.8798    1.2568 H   0  0  0  0  0  0  0  0  0  0  0  0
    9.2420    0.4532    0.8107 H   0  0  0  0  0  0  0  0  0  0  0  0
    7.3996   -0.3689    2.0035 H   0  0  0  0  0  0  0  0  0  0  0  0
    6.8563   -1.5699    0.8816 H   0  0  0  0  0  0  0  0  0  0  0  0
    5.3644    0.7046    2.1867 H   0  0  0  0  0  0  0  0  0  0  0  0
    5.0507   -1.0482    2.3095 H   0  0  0  0  0  0  0  0  0  0  0  0
    3.6650   -1.4726   -1.2392 H   0  0  0  0  0  0  0  0  0  0  0  0
    3.8702   -2.3393    0.3354 H   0  0  0  0  0  0  0  0  0  0  0  0
    5.2462   -1.8039   -0.6281 H   0  0  0  0  0  0  0  0  0  0  0  0
    3.9952    2.2356   -2.0751 H   0  0  0  0  0  0  0  0  0  0  0  0
    1.8085   -0.7479   -0.5892 H   0  0  0  0  0  0  0  0  0  0  0  0
   -0.2033    2.0045    1.7161 H   0  0  0  0  0  0  0  0  0  0  0  0
    0.6385    2.5944    0.2510 H   0  0  0  0  0  0  0  0  0  0  0  0
   -1.0735    2.2333    0.1928 H   0  0  0  0  0  0  0  0  0  0  0  0
   -0.2790   -0.9326   -1.4771 H   0  0  0  0  0  0  0  0  0  0  0  0
   -0.5852    0.7893   -1.8236 H   0  0  0  0  0  0  0  0  0  0  0  0
   -2.6412   -0.4870   -1.6626 H   0  0  0  0  0  0  0  0  0  0  0  0
   -2.6166    0.8130   -0.4659 H   0  0  0  0  0  0  0  0  0  0  0  0
   -2.0250   -2.1770   -0.0074 H   0  0  0  0  0  0  0  0  0  0  0  0
   -4.0281   -2.3150   -1.1334 H   0  0  0  0  0  0  0  0  0  0  0  0
   -5.1006   -5.3538    0.5168 H   0  0  0  0  0  0  0  0  0  0  0  0
   -5.8296   -3.9016   -2.0563 H   0  0  0  0  0  0  0  0  0  0  0  0
   -7.5289   -5.2476   -1.8814 H   0  0  0  0  0  0  0  0  0  0  0  0
   -7.1403   -3.3815    0.6812 H   0  0  0  0  0  0  0  0  0  0  0  0
   -8.6240   -2.2437   -0.4728 H   0  0  0  0  0  0  0  0  0  0  0  0
   -6.0610   -1.2904   -1.2715 H   0  0  0  0  0  0  0  0  0  0  0  0
   -5.3968    0.5522   -0.2384 H   0  0  0  0  0  0  0  0  0  0  0  0
   -5.1238    2.6557    0.6721 H   0  0  0  0  0  0  0  0  0  0  0  0
   -7.3454    3.2863    2.6696 H   0  0  0  0  0  0  0  0  0  0  0  0
   -7.8977    4.6455    1.0518 H   0  0  0  0  0  0  0  0  0  0  0  0
   -8.9976    2.4823    0.6963 H   0  0  0  0  0  0  0  0  0  0  0  0
   -9.1999    1.7123    2.7324 H   0  0  0  0  0  0  0  0  0  0  0  0
   -8.2748    0.2350   -0.1617 H   0  0  0  0  0  0  0  0  0  0  0  0
   -7.1897    1.1236   -1.8528 H   0  0  0  0  0  0  0  0  0  0  0  0
   -3.3150    4.3065    3.2384 H   0  0  0  0  0  0  0  0  0  0  0  0
   -3.3094   -6.4601   -2.6185 H   0  0  0  0  0  0  0  0  0  0  0  0
   -2.4191    1.1962    1.7757 H   0  0  0  0  0  0  0  0  0  0  0  0
   -1.6182    0.6403    3.2906 H   0  0  0  0  0  0  0  0  0  0  0  0
   -3.2448    0.0545    2.8468 H   0  0  0  0  0  0  0  0  0  0  0  0
   -2.8503   -2.4168    2.6973 H   0  0  0  0  0  0  0  0  0  0  0  0
   -1.4429   -1.9085    3.6462 H   0  0  0  0  0  0  0  0  0  0  0  0
   -1.2196   -2.9912    2.2168 H   0  0  0  0  0  0  0  0  0  0  0  0
    0.2024   -1.6424    0.8817 H   0  0  0  0  0  0  0  0  0  0  0  0
    0.7106    0.4436    3.0731 H   0  0  0  0  0  0  0  0  0  0  0  0
    0.6313   -1.3057    3.3080 H   0  0  0  0  0  0  0  0  0  0  0  0
    2.9351   -0.6398    3.0607 H   0  0  0  0  0  0  0  0  0  0  0  0
    2.4093   -1.7806    1.8016 H   0  0  0  0  0  0  0  0  0  0  0  0
    1.9348    2.0354    2.1273 H   0  0  0  0  0  0  0  0  0  0  0  0
    3.2655    2.4643    1.0442 H   0  0  0  0  0  0  0  0  0  0  0  0
    3.5396    1.6683    2.6251 H   0  0  0  0  0  0  0  0  0  0  0  0
    9.7152    3.4976   -3.7828 H   0  0  0  0  0  0  0  0  0  0  0  0
  1  2  1  0
  2  3  1  0
  3  4  1  6
  3  5  1  0
  5  6  1  0
  6  7  1  0
  7  8  1  1
  7  9  1  0
  9 10  1  0
 10 11  1  0
 11 12  1  6
 11 13  1  0
 13 14  2  0
 14 15  1  0
 15 16  2  0
 15 17  1  0
 17 18  1  0
 18 19  1  1
 18 20  1  0
 20 21  1  0
 21 22  1  0
 22 23  1  0
 23 24  1  0
 24 25  1  0
 25 26  1  0
 26 27  1  0
 27 28  1  0
 27 29  1  0
 29 30  1  0
 29 31  1  0
 31 32  1  0
 32 33  1  0
 33 34  1  0
 34 35  1  0
 35 36  1  0
 36 37  1  0
 36 38  1  0
 38 39  1  0
 38 40  1  0
 40 41  1  0
 35 42  1  0
 42 43  1  0
 42 44  2  0
 26 45  1  0
 45 46  1  0
 45 47  2  0
 22 48  1  0
 48 49  1  0
 48 50  1  0
 48 51  1  0
 51 52  1  0
 52 53  1  0
 53 54  1  0
 54 55  1  1
  3 56  1  0
 56 57  1  0
 56 58  2  0
  7  1  1  0
 54 11  1  0
 13  1  1  0
 54 17  1  0
 51 18  1  0
 31 24  1  0
 40 33  1  0
  1 59  1  1
  2 60  1  0
  2 61  1  0
  4 62  1  0
  4 63  1  0
  4 64  1  0
  5 65  1  0
  5 66  1  0
  6 67  1  0
  6 68  1  0
  8 69  1  0
  8 70  1  0
  8 71  1  0
  9 72  1  0
  9 73  1  0
 10 74  1  0
 10 75  1  0
 12 76  1  0
 12 77  1  0
 12 78  1  0
 14 79  1  0
 17 80  1  6
 19 81  1  0
 19 82  1  0
 19 83  1  0
 20 84  1  0
 20 85  1  0
 21 86  1  0
 21 87  1  0
 22 88  1  6
 24 89  1  6
 26 90  1  1
 27 91  1  6
 28 92  1  0
 29 93  1  1
 30 94  1  0
 31 95  1  6
 33 96  1  6
 35 97  1  6
 36 98  1  1
 37 99  1  0
 38100  1  6
 39101  1  0
 40102  1  6
 41103  1  0
 43104  1  0
 46105  1  0
 49106  1  0
 49107  1  0
 49108  1  0
 50109  1  0
 50110  1  0
 50111  1  0
 51112  1  6
 52113  1  0
 52114  1  0
 53115  1  0
 53116  1  0
 55117  1  0
 55118  1  0
 55119  1  0
 57120  1  0
M  END
$$$$
