
     RDKit          3D

 56 59  0  0  0  0  0  0  0  0999 V2000
    0.7103    0.6829   -0.0905 C   0  0  2  0  0  0  0  0  0  0  0  0
    1.7291    1.5140   -0.8557 C   0  0  0  0  0  0  0  0  0  0  0  0
    3.0776    1.1592   -0.1792 C   0  0  1  0  0  0  0  0  0  0  0  0
    3.6381    2.3618    0.5953 C   0  0  0  0  0  0  0  0  0  0  0  0
    2.7906   -0.0617    0.7555 C   0  0  2  0  0  0  0  0  0  0  0  0
    3.9333   -1.0687    0.8651 C   0  0  0  0  0  0  0  0  0  0  0  0
    3.6772   -2.2525    1.0319 O   0  0  0  0  0  0  0  0  0  0  0  0
    5.3706   -0.6161    0.9693 C   0  0  0  0  0  0  0  0  0  0  0  0
    6.2455   -1.7122    1.0081 O   0  0  0  0  0  0  0  0  0  0  0  0
    1.4471   -0.6295    0.2095 C   0  0  2  0  0  0  0  0  0  0  0  0
    1.7279   -1.4962   -1.0691 C   0  0  0  0  0  0  0  0  0  0  0  0
    0.6164   -1.4149    1.2591 C   0  0  0  0  0  0  0  0  0  0  0  0
   -0.8691   -1.6222    0.8470 C   0  0  2  0  0  0  0  0  0  0  0  0
   -0.9842   -2.6932   -0.0539 O   0  0  0  0  0  0  0  0  0  0  0  0
   -1.5851   -0.2947    0.3779 C   0  0  1  0  0  0  0  0  0  0  0  0
   -1.6501    0.5006    1.5195 F   0  0  0  0  0  0  0  0  0  0  0  0
   -0.7151    0.4929   -0.6714 C   0  0  1  0  0  0  0  0  0  0  0  0
   -1.3485    1.8668   -0.9861 C   0  0  0  0  0  0  0  0  0  0  0  0
   -2.7873    1.7312   -1.4834 C   0  0  2  0  0  0  0  0  0  0  0  0
   -3.3043    3.0004   -1.6936 F   0  0  0  0  0  0  0  0  0  0  0  0
   -3.6047    0.9349   -0.4863 C   0  0  0  0  0  0  0  0  0  0  0  0
   -4.7563    1.4316    0.0011 C   0  0  0  0  0  0  0  0  0  0  0  0
   -5.5340    0.6947    0.9964 C   0  0  0  0  0  0  0  0  0  0  0  0
   -6.6193    1.1653    1.4278 O   0  0  0  0  0  0  0  0  0  0  0  0
   -5.0366   -0.5814    1.4999 C   0  0  0  0  0  0  0  0  0  0  0  0
   -3.9057   -1.1020    1.0247 C   0  0  0  0  0  0  0  0  0  0  0  0
   -3.0876   -0.4644   -0.1005 C   0  0  2  0  0  0  0  0  0  0  0  0
   -3.2706   -1.3758   -1.3397 C   0  0  0  0  0  0  0  0  0  0  0  0
    0.5703    1.2298    0.8749 H   0  0  0  0  0  0  0  0  0  0  0  0
    1.7406    1.2148   -1.9270 H   0  0  0  0  0  0  0  0  0  0  0  0
    1.4879    2.5983   -0.7936 H   0  0  0  0  0  0  0  0  0  0  0  0
    3.7999    0.8822   -0.9781 H   0  0  0  0  0  0  0  0  0  0  0  0
    3.8403    3.2000   -0.1049 H   0  0  0  0  0  0  0  0  0  0  0  0
    4.5896    2.0971    1.0981 H   0  0  0  0  0  0  0  0  0  0  0  0
    2.9124    2.7058    1.3635 H   0  0  0  0  0  0  0  0  0  0  0  0
    2.6154    0.3137    1.7901 H   0  0  0  0  0  0  0  0  0  0  0  0
    5.6408    0.0465    0.1189 H   0  0  0  0  0  0  0  0  0  0  0  0
    5.4921   -0.0389    1.9092 H   0  0  0  0  0  0  0  0  0  0  0  0
    6.3063   -2.0596    0.0797 H   0  0  0  0  0  0  0  0  0  0  0  0
    1.8438   -2.5683   -0.8053 H   0  0  0  0  0  0  0  0  0  0  0  0
    2.6629   -1.1867   -1.5813 H   0  0  0  0  0  0  0  0  0  0  0  0
    0.9491   -1.4231   -1.8445 H   0  0  0  0  0  0  0  0  0  0  0  0
    1.0832   -2.4021    1.4638 H   0  0  0  0  0  0  0  0  0  0  0  0
    0.6279   -0.8600    2.2237 H   0  0  0  0  0  0  0  0  0  0  0  0
   -1.3753   -1.9547    1.7778 H   0  0  0  0  0  0  0  0  0  0  0  0
   -0.7934   -2.3590   -0.9619 H   0  0  0  0  0  0  0  0  0  0  0  0
   -0.6646   -0.0587   -1.6266 H   0  0  0  0  0  0  0  0  0  0  0  0
   -1.3336    2.5145   -0.0813 H   0  0  0  0  0  0  0  0  0  0  0  0
   -0.7576    2.3772   -1.7771 H   0  0  0  0  0  0  0  0  0  0  0  0
   -2.7906    1.2048   -2.4612 H   0  0  0  0  0  0  0  0  0  0  0  0
   -5.1251    2.4003   -0.3111 H   0  0  0  0  0  0  0  0  0  0  0  0
   -5.5936   -1.1112    2.2630 H   0  0  0  0  0  0  0  0  0  0  0  0
   -3.6090   -2.0720    1.4025 H   0  0  0  0  0  0  0  0  0  0  0  0
   -3.1711   -2.4510   -1.0857 H   0  0  0  0  0  0  0  0  0  0  0  0
   -2.5571   -1.1359   -2.1517 H   0  0  0  0  0  0  0  0  0  0  0  0
   -4.2965   -1.2541   -1.7518 H   0  0  0  0  0  0  0  0  0  0  0  0
  1  2  1  0
  2  3  1  0
  3  4  1  0
  3  5  1  0
  5  6  1  0
  6  7  2  0
  6  8  1  0
  8  9  1  0
  5 10  1  0
 10 11  1  6
 10 12  1  0
 12 13  1  0
 13 14  1  0
 13 15  1  0
 15 16  1  1
 15 17  1  0
 17 18  1  0
 18 19  1  0
 19 20  1  0
 19 21  1  0
 21 22  2  0
 22 23  1  0
 23 24  2  0
 23 25  1  0
 25 26  2  0
 26 27  1  0
 27 28  1  6
 10  1  1  0
 27 15  1  0
 17  1  1  0
 27 21  1  0
  1 29  1  1
  2 30  1  0
  2 31  1  0
  3 32  1  6
  4 33  1  0
  4 34  1  0
  4 35  1  0
  5 36  1  1
  8 37  1  0
  8 38  1  0
  9 39  1  0
 11 40  1  0
 11 41  1  0
 11 42  1  0
 12 43  1  0
 12 44  1  0
 13 45  1  1
 14 46  1  0
 17 47  1  6
 18 48  1  0
 18 49  1  0
 19 50  1  6
 22 51  1  0
 25 52  1  0
 26 53  1  0
 28 54  1  0
 28 55  1  0
 28 56  1  0
M  END
$$$$
