
     RDKit          3D

 50 53  0  0  0  0  0  0  0  0999 V2000
   -4.2517    1.4570   -2.2395 C   0  0  0  0  0  0  0  0  0  0  0  0
   -3.3118    0.2933   -1.9116 C   0  0  0  0  0  0  0  0  0  0  0  0
   -3.3170   -0.1122   -0.4109 C   0  0  0  0  0  0  0  0  0  0  0  0
   -2.6229   -1.4980   -0.2670 C   0  0  0  0  0  0  0  0  0  0  0  0
   -2.8927   -2.2032    1.0622 C   0  0  0  0  0  0  0  0  0  0  0  0
   -2.7215    1.0208    0.5041 C   0  0  0  0  0  0  0  0  0  0  0  0
   -3.0614    0.8392    1.9271 N   0  0  0  0  0  0  0  0  0  0  0  0
   -2.4753    1.4395    2.9828 C   0  0  0  0  0  0  0  0  0  0  0  0
   -3.1689    1.2321    4.1184 N   0  0  0  0  0  0  0  0  0  0  0  0
   -4.2193    0.5038    3.6871 C   0  0  0  0  0  0  0  0  0  0  0  0
   -4.1819    0.2867    2.3598 N   0  0  0  0  0  0  0  0  0  0  0  0
   -1.2246    1.2348    0.2867 C   0  0  0  0  0  0  0  0  0  0  0  0
   -0.2609    0.4526    0.9509 C   0  0  0  0  0  0  0  0  0  0  0  0
    1.1025    0.6538    0.7214 C   0  0  0  0  0  0  0  0  0  0  0  0
    1.5331    1.6335   -0.1881 C   0  0  0  0  0  0  0  0  0  0  0  0
    2.9299    1.8715   -0.4284 N   0  0  0  0  0  0  0  0  0  0  0  0
    3.9253    0.8405   -0.4492 C   0  0  0  0  0  0  0  0  0  0  0  0
    3.6373   -0.4849   -0.4674 N   0  0  0  0  0  0  0  0  0  0  0  0
    4.7739   -1.2228   -0.5389 C   0  0  0  0  0  0  0  0  0  0  0  0
    4.8078   -2.6180   -0.5673 C   0  0  0  0  0  0  0  0  0  0  0  0
    6.0552   -3.2613   -0.6474 C   0  0  0  0  0  0  0  0  0  0  0  0
    7.2453   -2.5079   -0.6994 C   0  0  0  0  0  0  0  0  0  0  0  0
    7.1988   -1.1049   -0.6719 C   0  0  0  0  0  0  0  0  0  0  0  0
    5.9511   -0.4918   -0.5907 C   0  0  0  0  0  0  0  0  0  0  0  0
    5.5880    1.1467   -0.5477 S   0  0  0  0  0  0  0  0  0  0  0  0
    0.5788    2.4338   -0.8292 C   0  0  0  0  0  0  0  0  0  0  0  0
   -0.7848    2.2332   -0.6007 C   0  0  0  0  0  0  0  0  0  0  0  0
   -5.2562    1.2871   -1.7974 H   0  0  0  0  0  0  0  0  0  0  0  0
   -3.8423    2.4204   -1.8753 H   0  0  0  0  0  0  0  0  0  0  0  0
   -4.3641    1.5388   -3.3414 H   0  0  0  0  0  0  0  0  0  0  0  0
   -3.6531   -0.5689   -2.5257 H   0  0  0  0  0  0  0  0  0  0  0  0
   -2.2824    0.5393   -2.2476 H   0  0  0  0  0  0  0  0  0  0  0  0
   -4.3858   -0.2542   -0.1366 H   0  0  0  0  0  0  0  0  0  0  0  0
   -1.5306   -1.4192   -0.4404 H   0  0  0  0  0  0  0  0  0  0  0  0
   -3.0094   -2.1794   -1.0563 H   0  0  0  0  0  0  0  0  0  0  0  0
   -2.3957   -1.6852    1.9042 H   0  0  0  0  0  0  0  0  0  0  0  0
   -3.9847   -2.2680    1.2530 H   0  0  0  0  0  0  0  0  0  0  0  0
   -2.4863   -3.2357    1.0183 H   0  0  0  0  0  0  0  0  0  0  0  0
   -3.2307    1.9653    0.2233 H   0  0  0  0  0  0  0  0  0  0  0  0
   -1.5802    2.0455    2.9305 H   0  0  0  0  0  0  0  0  0  0  0  0
   -5.0161    0.1571    4.3310 H   0  0  0  0  0  0  0  0  0  0  0  0
   -0.5591   -0.3063    1.6594 H   0  0  0  0  0  0  0  0  0  0  0  0
    1.8171    0.0604    1.2756 H   0  0  0  0  0  0  0  0  0  0  0  0
    3.2303    2.8365   -0.6944 H   0  0  0  0  0  0  0  0  0  0  0  0
    3.8929   -3.1952   -0.5284 H   0  0  0  0  0  0  0  0  0  0  0  0
    6.1018   -4.3423   -0.6699 H   0  0  0  0  0  0  0  0  0  0  0  0
    8.2002   -3.0134   -0.7618 H   0  0  0  0  0  0  0  0  0  0  0  0
    8.1071   -0.5179   -0.7131 H   0  0  0  0  0  0  0  0  0  0  0  0
    0.8931    3.2078   -1.5182 H   0  0  0  0  0  0  0  0  0  0  0  0
   -1.4982    2.8594   -1.1207 H   0  0  0  0  0  0  0  0  0  0  0  0
  1  2  1  0
  2  3  1  0
  3  4  1  0
  4  5  1  0
  3  6  1  0
  6  7  1  0
  7  8  1  0
  8  9  2  0
  9 10  1  0
 10 11  2  0
  6 12  1  0
 12 13  2  0
 13 14  1  0
 14 15  2  0
 15 16  1  0
 16 17  1  0
 17 18  2  0
 18 19  1  0
 19 20  2  0
 20 21  1  0
 21 22  2  0
 22 23  1  0
 23 24  2  0
 24 25  1  0
 15 26  1  0
 26 27  2  0
 11  7  1  0
 27 12  1  0
 25 17  1  0
 24 19  1  0
  1 28  1  0
  1 29  1  0
  1 30  1  0
  2 31  1  0
  2 32  1  0
  3 33  1  0
  4 34  1  0
  4 35  1  0
  5 36  1  0
  5 37  1  0
  5 38  1  0
  6 39  1  0
  8 40  1  0
 10 41  1  0
 13 42  1  0
 14 43  1  0
 16 44  1  0
 20 45  1  0
 21 46  1  0
 22 47  1  0
 23 48  1  0
 26 49  1  0
 27 50  1  0
M  END
$$$$
