
     RDKit          3D

 50 53  0  0  0  0  0  0  0  0999 V2000
   -4.0161   -1.8056    1.4359 C   0  0  0  0  0  0  0  0  0  0  0  0
   -2.5965   -1.7904    1.0279 N   0  0  0  0  0  0  0  0  0  0  0  0
   -2.1661   -3.1846    0.7558 C   0  0  0  0  0  0  0  0  0  0  0  0
   -0.8034   -3.2737    0.0388 C   0  0  0  0  0  0  0  0  0  0  0  0
   -0.0269   -1.9581    0.1440 C   0  0  2  0  0  0  0  0  0  0  0  0
   -0.8504   -0.8170   -0.4802 C   0  0  0  0  0  0  0  0  0  0  0  0
   -2.3661   -0.9215   -0.1561 C   0  0  2  0  0  0  0  0  0  0  0  0
   -2.9161    0.4700    0.0518 C   0  0  0  0  0  0  0  0  0  0  0  0
   -2.5938    1.2432    1.1248 N   0  0  0  0  0  0  0  0  0  0  0  0
   -3.2830    2.3740    0.8918 C   0  0  0  0  0  0  0  0  0  0  0  0
   -3.3264    3.5232    1.6776 C   0  0  0  0  0  0  0  0  0  0  0  0
   -4.1234    4.5934    1.2271 C   0  0  0  0  0  0  0  0  0  0  0  0
   -4.8471    4.4875    0.0165 C   0  0  0  0  0  0  0  0  0  0  0  0
   -4.7796    3.3107   -0.7533 C   0  0  0  0  0  0  0  0  0  0  0  0
   -3.9814    2.2744   -0.2745 C   0  0  0  0  0  0  0  0  0  0  0  0
   -3.7589    1.0742   -0.8225 N   0  0  0  0  0  0  0  0  0  0  0  0
    1.2740   -2.0718   -0.5244 N   0  0  0  0  0  0  0  0  0  0  0  0
    2.3325   -1.1281   -0.3090 C   0  0  0  0  0  0  0  0  0  0  0  0
    2.1680   -0.1662    0.4902 O   0  0  0  0  0  0  0  0  0  0  0  0
    3.5633   -1.2661   -1.0354 N   0  0  0  0  0  0  0  0  0  0  0  0
    4.7552   -0.5118   -0.7557 C   0  0  0  0  0  0  0  0  0  0  0  0
    5.6155   -0.1691   -1.8101 C   0  0  0  0  0  0  0  0  0  0  0  0
    6.7917    0.5453   -1.5626 C   0  0  0  0  0  0  0  0  0  0  0  0
    7.1282    0.9115   -0.2540 C   0  0  0  0  0  0  0  0  0  0  0  0
    6.2879    0.5529    0.8067 C   0  0  0  0  0  0  0  0  0  0  0  0
    5.1108   -0.1607    0.5598 C   0  0  0  0  0  0  0  0  0  0  0  0
    8.3403    1.6448    0.0013 C   0  0  0  0  0  0  0  0  0  0  0  0
    9.3147    2.2344    0.2066 N   0  0  0  0  0  0  0  0  0  0  0  0
   -4.6805   -2.0374    0.5738 H   0  0  0  0  0  0  0  0  0  0  0  0
   -4.3063   -0.8256    1.8682 H   0  0  0  0  0  0  0  0  0  0  0  0
   -4.1858   -2.5605    2.2347 H   0  0  0  0  0  0  0  0  0  0  0  0
   -2.0845   -3.7234    1.7256 H   0  0  0  0  0  0  0  0  0  0  0  0
   -2.9227   -3.7224    0.1384 H   0  0  0  0  0  0  0  0  0  0  0  0
   -0.9695   -3.5146   -1.0352 H   0  0  0  0  0  0  0  0  0  0  0  0
   -0.2033   -4.1001    0.4792 H   0  0  0  0  0  0  0  0  0  0  0  0
    0.1395   -1.7456    1.2247 H   0  0  0  0  0  0  0  0  0  0  0  0
   -0.7244   -0.8279   -1.5859 H   0  0  0  0  0  0  0  0  0  0  0  0
   -0.4243    0.1450   -0.1186 H   0  0  0  0  0  0  0  0  0  0  0  0
   -2.8797   -1.3699   -1.0388 H   0  0  0  0  0  0  0  0  0  0  0  0
   -2.7675    3.5923    2.6018 H   0  0  0  0  0  0  0  0  0  0  0  0
   -4.1820    5.5026    1.8111 H   0  0  0  0  0  0  0  0  0  0  0  0
   -5.4562    5.3161   -0.3206 H   0  0  0  0  0  0  0  0  0  0  0  0
   -5.3274    3.2158   -1.6819 H   0  0  0  0  0  0  0  0  0  0  0  0
   -4.1443    0.6940   -1.7156 H   0  0  0  0  0  0  0  0  0  0  0  0
    1.4602   -2.8844   -1.1554 H   0  0  0  0  0  0  0  0  0  0  0  0
    3.5621   -1.8894   -1.8743 H   0  0  0  0  0  0  0  0  0  0  0  0
    5.3678   -0.4478   -2.8268 H   0  0  0  0  0  0  0  0  0  0  0  0
    7.4386    0.8098   -2.3904 H   0  0  0  0  0  0  0  0  0  0  0  0
    6.5469    0.8170    1.8251 H   0  0  0  0  0  0  0  0  0  0  0  0
    4.4963   -0.4584    1.3987 H   0  0  0  0  0  0  0  0  0  0  0  0
  1  2  1  0
  2  3  1  0
  3  4  1  0
  4  5  1  0
  5  6  1  0
  6  7  1  0
  7  8  1  0
  8  9  2  0
  9 10  1  0
 10 11  2  0
 11 12  1  0
 12 13  2  0
 13 14  1  0
 14 15  2  0
 15 16  1  0
  5 17  1  0
 17 18  1  0
 18 19  2  0
 18 20  1  0
 20 21  1  0
 21 22  2  0
 22 23  1  0
 23 24  2  0
 24 25  1  0
 25 26  2  0
 24 27  1  0
 27 28  3  0
  7  2  1  0
 16  8  1  0
 26 21  1  0
 15 10  1  0
  1 29  1  0
  1 30  1  0
  1 31  1  0
  3 32  1  0
  3 33  1  0
  4 34  1  0
  4 35  1  0
  5 36  1  1
  6 37  1  0
  6 38  1  0
  7 39  1  6
 11 40  1  0
 12 41  1  0
 13 42  1  0
 14 43  1  0
 16 44  1  0
 17 45  1  0
 20 46  1  0
 22 47  1  0
 23 48  1  0
 25 49  1  0
 26 50  1  0
M  END
$$$$
