
     RDKit          3D

 51 54  0  0  0  0  0  0  0  0999 V2000
    2.0070    2.2344   -0.4066 C   0  0  2  0  0  0  0  0  0  0  0  0
    0.7248    3.0394   -0.6681 C   0  0  0  0  0  0  0  0  0  0  0  0
    2.9379    2.4877   -1.4301 O   0  0  0  0  0  0  0  0  0  0  0  0
    1.7451    0.7092   -0.2769 C   0  0  2  0  0  0  0  0  0  0  0  0
    0.8973    0.3680    0.9741 C   0  0  0  0  0  0  0  0  0  0  0  0
    0.6383   -1.1390    1.1496 C   0  0  0  0  0  0  0  0  0  0  0  0
   -0.1242   -1.7285   -0.0090 C   0  0  0  0  0  0  0  0  0  0  0  0
    0.4870   -2.6234   -0.9164 C   0  0  0  0  0  0  0  0  0  0  0  0
   -0.2393   -3.1439   -2.0120 C   0  0  0  0  0  0  0  0  0  0  0  0
   -1.5834   -2.7801   -2.2155 C   0  0  0  0  0  0  0  0  0  0  0  0
   -2.1589   -1.9000   -1.3039 C   0  0  0  0  0  0  0  0  0  0  0  0
   -1.4610   -1.3980   -0.2482 C   0  0  0  0  0  0  0  0  0  0  0  0
   -2.2459   -0.6037    0.4286 O   0  0  0  0  0  0  0  0  0  0  0  0
   -3.4089   -0.6157   -0.2035 C   0  0  0  0  0  0  0  0  0  0  0  0
   -3.4125   -1.4169   -1.3035 N   0  0  0  0  0  0  0  0  0  0  0  0
   -4.5804    0.1656    0.2410 C   0  0  0  0  0  0  0  0  0  0  0  0
   -4.4915    0.9843    1.3800 C   0  0  0  0  0  0  0  0  0  0  0  0
   -5.5975    1.7275    1.8038 C   0  0  0  0  0  0  0  0  0  0  0  0
   -6.8012    1.6607    1.0955 C   0  0  0  0  0  0  0  0  0  0  0  0
   -8.1872    2.5940    1.6290 Cl  0  0  0  0  0  0  0  0  0  0  0  0
   -6.8983    0.8490   -0.0389 C   0  0  0  0  0  0  0  0  0  0  0  0
   -5.7943    0.1044   -0.4659 C   0  0  0  0  0  0  0  0  0  0  0  0
    3.0256   -0.0101   -0.2425 N   0  0  0  0  0  0  0  0  0  0  0  0
    3.5206   -0.8148   -1.2039 C   0  0  0  0  0  0  0  0  0  0  0  0
    4.7421   -1.2980   -0.8966 N   0  0  0  0  0  0  0  0  0  0  0  0
    5.0193   -0.7597    0.3098 C   0  0  0  0  0  0  0  0  0  0  0  0
    3.9693    0.0399    0.7149 C   0  0  0  0  0  0  0  0  0  0  0  0
    6.2739   -1.0126    1.0398 C   0  0  0  0  0  0  0  0  0  0  0  0
    6.5251   -0.4265    2.3189 N   0  0  0  0  0  0  0  0  0  0  0  0
    7.1448   -1.7634    0.5251 O   0  0  0  0  0  0  0  0  0  0  0  0
    2.4502    2.6025    0.5444 H   0  0  0  0  0  0  0  0  0  0  0  0
    0.9865    4.0928   -0.9035 H   0  0  0  0  0  0  0  0  0  0  0  0
    0.1616    2.6143   -1.5261 H   0  0  0  0  0  0  0  0  0  0  0  0
    0.0739    3.0494    0.2301 H   0  0  0  0  0  0  0  0  0  0  0  0
    2.5477    2.1503   -2.2791 H   0  0  0  0  0  0  0  0  0  0  0  0
    1.1752    0.3855   -1.1771 H   0  0  0  0  0  0  0  0  0  0  0  0
    1.4099    0.7449    1.8853 H   0  0  0  0  0  0  0  0  0  0  0  0
   -0.0833    0.8837    0.9180 H   0  0  0  0  0  0  0  0  0  0  0  0
    0.0461   -1.2919    2.0776 H   0  0  0  0  0  0  0  0  0  0  0  0
    1.6015   -1.6734    1.2971 H   0  0  0  0  0  0  0  0  0  0  0  0
    1.5193   -2.9187   -0.7804 H   0  0  0  0  0  0  0  0  0  0  0  0
    0.2421   -3.8266   -2.7000 H   0  0  0  0  0  0  0  0  0  0  0  0
   -2.1484   -3.1710   -3.0517 H   0  0  0  0  0  0  0  0  0  0  0  0
   -3.5680    1.0505    1.9418 H   0  0  0  0  0  0  0  0  0  0  0  0
   -5.5174    2.3548    2.6825 H   0  0  0  0  0  0  0  0  0  0  0  0
   -7.8281    0.7943   -0.5906 H   0  0  0  0  0  0  0  0  0  0  0  0
   -5.8910   -0.5176   -1.3470 H   0  0  0  0  0  0  0  0  0  0  0  0
    3.0015   -1.0479   -2.1246 H   0  0  0  0  0  0  0  0  0  0  0  0
    3.8934    0.6189    1.6252 H   0  0  0  0  0  0  0  0  0  0  0  0
    5.8305    0.1969    2.7842 H   0  0  0  0  0  0  0  0  0  0  0  0
    7.4236   -0.6215    2.8139 H   0  0  0  0  0  0  0  0  0  0  0  0
  1  2  1  0
  1  3  1  0
  1  4  1  0
  4  5  1  0
  5  6  1  0
  6  7  1  0
  7  8  2  0
  8  9  1  0
  9 10  2  0
 10 11  1  0
 11 12  2  0
 12 13  1  0
 13 14  1  0
 14 15  2  0
 14 16  1  0
 16 17  2  0
 17 18  1  0
 18 19  2  0
 19 20  1  0
 19 21  1  0
 21 22  2  0
  4 23  1  0
 23 24  1  0
 24 25  2  0
 25 26  1  0
 26 27  2  0
 26 28  1  0
 28 29  1  0
 28 30  2  0
 12  7  1  0
 22 16  1  0
 27 23  1  0
 15 11  1  0
  1 31  1  1
  2 32  1  0
  2 33  1  0
  2 34  1  0
  3 35  1  0
  4 36  1  6
  5 37  1  0
  5 38  1  0
  6 39  1  0
  6 40  1  0
  8 41  1  0
  9 42  1  0
 10 43  1  0
 17 44  1  0
 18 45  1  0
 21 46  1  0
 22 47  1  0
 24 48  1  0
 27 49  1  0
 29 50  1  0
 29 51  1  0
M  END
$$$$
