
     RDKit          3D

 42 45  0  0  0  0  0  0  0  0999 V2000
    5.1220   -0.3094    0.6364 C   0  0  0  0  0  0  0  0  0  0  0  0
    3.6650   -0.2831    0.4387 N   0  0  0  0  0  0  0  0  0  0  0  0
    3.3243   -0.6709   -0.9388 C   0  0  0  0  0  0  0  0  0  0  0  0
    1.8578   -0.3254   -1.1967 C   0  0  0  0  0  0  0  0  0  0  0  0
    1.0281   -0.6399   -0.0251 N   0  0  0  0  0  0  0  0  0  0  0  0
    1.5459   -1.5273    1.0242 C   0  0  0  0  0  0  0  0  0  0  0  0
    2.9957   -1.1659    1.4205 C   0  0  0  0  0  0  0  0  0  0  0  0
   -0.3804   -0.3557   -0.0778 C   0  0  0  0  0  0  0  0  0  0  0  0
   -1.2137   -1.3372    0.1172 N   0  0  0  0  0  0  0  0  0  0  0  0
   -2.6508   -1.3750    0.1326 C   0  0  0  0  0  0  0  0  0  0  0  0
   -3.2420   -2.4091    0.8742 C   0  0  0  0  0  0  0  0  0  0  0  0
   -4.6236   -2.6030    0.8633 C   0  0  0  0  0  0  0  0  0  0  0  0
   -5.4354   -1.7789    0.0883 C   0  0  0  0  0  0  0  0  0  0  0  0
   -4.8665   -0.7576   -0.6725 C   0  0  0  0  0  0  0  0  0  0  0  0
   -3.4781   -0.5352   -0.6572 C   0  0  0  0  0  0  0  0  0  0  0  0
   -2.9580    0.5330   -1.4561 N   0  0  0  0  0  0  0  0  0  0  0  0
   -1.9656    1.4158   -0.9476 C   0  0  0  0  0  0  0  0  0  0  0  0
   -0.8169    1.0408   -0.2729 C   0  0  0  0  0  0  0  0  0  0  0  0
   -0.0275    2.1453    0.0916 C   0  0  0  0  0  0  0  0  0  0  0  0
   -0.5691    3.3639   -0.2998 C   0  0  0  0  0  0  0  0  0  0  0  0
    0.0843    4.6950   -0.1386 C   0  0  0  0  0  0  0  0  0  0  0  0
   -2.0036    3.0866   -1.1320 S   0  0  0  0  0  0  0  0  0  0  0  0
    5.5419   -1.3146    0.4080 H   0  0  0  0  0  0  0  0  0  0  0  0
    5.3710   -0.0416    1.6861 H   0  0  0  0  0  0  0  0  0  0  0  0
    5.6078    0.4436   -0.0204 H   0  0  0  0  0  0  0  0  0  0  0  0
    3.9499   -0.1150   -1.6728 H   0  0  0  0  0  0  0  0  0  0  0  0
    3.4936   -1.7612   -1.0956 H   0  0  0  0  0  0  0  0  0  0  0  0
    1.7890    0.7595   -1.4228 H   0  0  0  0  0  0  0  0  0  0  0  0
    1.4895   -0.8887   -2.0811 H   0  0  0  0  0  0  0  0  0  0  0  0
    0.8986   -1.4764    1.9279 H   0  0  0  0  0  0  0  0  0  0  0  0
    1.5158   -2.5734    0.6484 H   0  0  0  0  0  0  0  0  0  0  0  0
    2.9751   -0.6430    2.4016 H   0  0  0  0  0  0  0  0  0  0  0  0
    3.5654   -2.1134    1.5614 H   0  0  0  0  0  0  0  0  0  0  0  0
   -2.6214   -3.0757    1.4605 H   0  0  0  0  0  0  0  0  0  0  0  0
   -5.0631   -3.4020    1.4465 H   0  0  0  0  0  0  0  0  0  0  0  0
   -6.5066   -1.9338    0.0730 H   0  0  0  0  0  0  0  0  0  0  0  0
   -5.5127   -0.1270   -1.2705 H   0  0  0  0  0  0  0  0  0  0  0  0
   -3.5561    0.9022   -2.2297 H   0  0  0  0  0  0  0  0  0  0  0  0
    0.9230    2.0599    0.6035 H   0  0  0  0  0  0  0  0  0  0  0  0
   -0.6851    5.4947   -0.1152 H   0  0  0  0  0  0  0  0  0  0  0  0
    0.6604    4.7247    0.8101 H   0  0  0  0  0  0  0  0  0  0  0  0
    0.7722    4.8743   -0.9907 H   0  0  0  0  0  0  0  0  0  0  0  0
  1  2  1  0
  2  3  1  0
  3  4  1  0
  4  5  1  0
  5  6  1  0
  6  7  1  0
  5  8  1  0
  8  9  2  0
  9 10  1  0
 10 11  2  0
 11 12  1  0
 12 13  2  0
 13 14  1  0
 14 15  2  0
 15 16  1  0
 16 17  1  0
 17 18  2  0
 18 19  1  0
 19 20  2  0
 20 21  1  0
 20 22  1  0
  7  2  1  0
 18  8  1  0
 15 10  1  0
 22 17  1  0
  1 23  1  0
  1 24  1  0
  1 25  1  0
  3 26  1  0
  3 27  1  0
  4 28  1  0
  4 29  1  0
  6 30  1  0
  6 31  1  0
  7 32  1  0
  7 33  1  0
 11 34  1  0
 12 35  1  0
 13 36  1  0
 14 37  1  0
 16 38  1  0
 19 39  1  0
 21 40  1  0
 21 41  1  0
 21 42  1  0
M  END
$$$$
