
     RDKit          3D

 42 42  0  0  0  0  0  0  0  0999 V2000
    6.2598    0.3631    2.4513 O   0  0  0  0  0  0  0  0  0  0  0  0
    5.5082    0.7110    1.3334 C   0  0  0  0  0  0  0  0  0  0  0  0
    5.9735    1.5220    0.4885 O   0  0  0  0  0  0  0  0  0  0  0  0
    4.1680    0.0846    1.1121 C   0  0  0  0  0  0  0  0  0  0  0  0
    4.3106   -1.2229    0.3230 C   0  0  0  0  0  0  0  0  0  0  0  0
    2.9509   -1.9121    0.0786 C   0  0  0  0  0  0  0  0  0  0  0  0
    2.4300   -1.7551   -1.3619 C   0  0  0  0  0  0  0  0  0  0  0  0
    2.0077   -0.3224   -1.7175 C   0  0  0  0  0  0  0  0  0  0  0  0
    0.9463    0.1576   -0.8326 N   0  0  0  0  0  0  0  0  0  0  0  0
   -0.4052   -0.3139   -0.9162 C   0  0  0  0  0  0  0  0  0  0  0  0
   -0.7327   -1.1439   -1.8080 O   0  0  0  0  0  0  0  0  0  0  0  0
   -1.3839    0.1654    0.0161 N   0  0  0  0  0  0  0  0  0  0  0  0
   -2.7889   -0.2559   -0.0360 C   0  0  0  0  0  0  0  0  0  0  0  0
   -3.4991    0.0462    1.3092 C   0  0  0  0  0  0  0  0  0  0  0  0
   -4.1615    1.4279    1.3023 C   0  0  0  0  0  0  0  0  0  0  0  0
   -5.2461    1.5329    0.2105 C   0  0  0  0  0  0  0  0  0  0  0  0
   -4.9880    0.6148   -1.0011 C   0  0  0  0  0  0  0  0  0  0  0  0
   -3.4889    0.4141   -1.2460 C   0  0  0  0  0  0  0  0  0  0  0  0
    7.1761    0.7661    2.6071 H   0  0  0  0  0  0  0  0  0  0  0  0
    3.5182    0.7997    0.5680 H   0  0  0  0  0  0  0  0  0  0  0  0
    3.6999   -0.1220    2.0989 H   0  0  0  0  0  0  0  0  0  0  0  0
    4.9557   -1.9135    0.9107 H   0  0  0  0  0  0  0  0  0  0  0  0
    4.8345   -1.0291   -0.6392 H   0  0  0  0  0  0  0  0  0  0  0  0
    3.0807   -3.0014    0.2613 H   0  0  0  0  0  0  0  0  0  0  0  0
    2.1830   -1.5681    0.8057 H   0  0  0  0  0  0  0  0  0  0  0  0
    1.5608   -2.4333   -1.4985 H   0  0  0  0  0  0  0  0  0  0  0  0
    3.2122   -2.0900   -2.0774 H   0  0  0  0  0  0  0  0  0  0  0  0
    2.8854    0.3542   -1.6523 H   0  0  0  0  0  0  0  0  0  0  0  0
    1.6543   -0.2913   -2.7708 H   0  0  0  0  0  0  0  0  0  0  0  0
    1.1717    0.9155   -0.1501 H   0  0  0  0  0  0  0  0  0  0  0  0
   -1.0729    0.8365    0.7548 H   0  0  0  0  0  0  0  0  0  0  0  0
   -2.8213   -1.3602   -0.1732 H   0  0  0  0  0  0  0  0  0  0  0  0
   -4.2844   -0.7208    1.4913 H   0  0  0  0  0  0  0  0  0  0  0  0
   -2.7825   -0.0238    2.1564 H   0  0  0  0  0  0  0  0  0  0  0  0
   -3.3812    2.2011    1.1272 H   0  0  0  0  0  0  0  0  0  0  0  0
   -4.6152    1.6286    2.2968 H   0  0  0  0  0  0  0  0  0  0  0  0
   -6.2353    1.2735    0.6468 H   0  0  0  0  0  0  0  0  0  0  0  0
   -5.3036    2.5888   -0.1330 H   0  0  0  0  0  0  0  0  0  0  0  0
   -5.4610   -0.3766   -0.8250 H   0  0  0  0  0  0  0  0  0  0  0  0
   -5.4584    1.0548   -1.9069 H   0  0  0  0  0  0  0  0  0  0  0  0
   -3.0310    1.4075   -1.4515 H   0  0  0  0  0  0  0  0  0  0  0  0
   -3.3461   -0.2129   -2.1525 H   0  0  0  0  0  0  0  0  0  0  0  0
  1  2  1  0
  2  3  2  0
  2  4  1  0
  4  5  1  0
  5  6  1  0
  6  7  1  0
  7  8  1  0
  8  9  1  0
  9 10  1  0
 10 11  2  0
 10 12  1  0
 12 13  1  0
 13 14  1  0
 14 15  1  0
 15 16  1  0
 16 17  1  0
 17 18  1  0
 18 13  1  0
  1 19  1  0
  4 20  1  0
  4 21  1  0
  5 22  1  0
  5 23  1  0
  6 24  1  0
  6 25  1  0
  7 26  1  0
  7 27  1  0
  8 28  1  0
  8 29  1  0
  9 30  1  0
 12 31  1  0
 13 32  1  0
 14 33  1  0
 14 34  1  0
 15 35  1  0
 15 36  1  0
 16 37  1  0
 16 38  1  0
 17 39  1  0
 17 40  1  0
 18 41  1  0
 18 42  1  0
M  END
$$$$
