
     RDKit          3D

 42 41  0  0  0  0  0  0  0  0999 V2000
   -4.8023    0.0776   -1.0418 C   0  0  0  0  0  0  0  0  0  0  0  0
   -4.3977    0.1867    0.4096 C   0  0  0  0  0  0  0  0  0  0  0  0
   -5.3597   -0.2505    1.4837 C   0  0  0  0  0  0  0  0  0  0  0  0
   -3.1981    0.6829    0.7841 C   0  0  0  0  0  0  0  0  0  0  0  0
   -2.1126    1.1149   -0.1729 C   0  0  0  0  0  0  0  0  0  0  0  0
   -1.2192   -0.0618   -0.5936 C   0  0  0  0  0  0  0  0  0  0  0  0
   -0.4277   -0.6172    0.5775 C   0  0  0  0  0  0  0  0  0  0  0  0
   -1.0034   -1.7679    1.3623 C   0  0  0  0  0  0  0  0  0  0  0  0
    0.7606   -0.1056    0.9719 C   0  0  0  0  0  0  0  0  0  0  0  0
    1.5119    0.9907    0.2551 C   0  0  0  0  0  0  0  0  0  0  0  0
    2.3824    0.4352   -0.8826 C   0  0  0  0  0  0  0  0  0  0  0  0
    3.5123   -0.4346   -0.3593 C   0  0  0  0  0  0  0  0  0  0  0  0
    3.2840   -1.9182   -0.2215 C   0  0  0  0  0  0  0  0  0  0  0  0
    4.7099    0.0679    0.0177 C   0  0  0  0  0  0  0  0  0  0  0  0
    5.1001    1.5197   -0.0916 C   0  0  0  0  0  0  0  0  0  0  0  0
    5.2584    1.8870   -1.4350 O   0  0  0  0  0  0  0  0  0  0  0  0
   -4.0931   -0.5717   -1.5935 H   0  0  0  0  0  0  0  0  0  0  0  0
   -4.8219    1.0854   -1.5065 H   0  0  0  0  0  0  0  0  0  0  0  0
   -5.8151   -0.3631   -1.1490 H   0  0  0  0  0  0  0  0  0  0  0  0
   -4.9010   -1.0609    2.0893 H   0  0  0  0  0  0  0  0  0  0  0  0
   -5.5978    0.6079    2.1470 H   0  0  0  0  0  0  0  0  0  0  0  0
   -6.3097   -0.6324    1.0556 H   0  0  0  0  0  0  0  0  0  0  0  0
   -2.9695    0.7575    1.8446 H   0  0  0  0  0  0  0  0  0  0  0  0
   -1.4943    1.8897    0.3276 H   0  0  0  0  0  0  0  0  0  0  0  0
   -2.5484    1.5954   -1.0736 H   0  0  0  0  0  0  0  0  0  0  0  0
   -0.5421    0.2667   -1.4078 H   0  0  0  0  0  0  0  0  0  0  0  0
   -1.8432   -0.8655   -1.0370 H   0  0  0  0  0  0  0  0  0  0  0  0
   -0.3119   -2.6359    1.3174 H   0  0  0  0  0  0  0  0  0  0  0  0
   -1.9883   -2.0834    0.9582 H   0  0  0  0  0  0  0  0  0  0  0  0
   -1.1443   -1.4675    2.4222 H   0  0  0  0  0  0  0  0  0  0  0  0
    1.2508   -0.5362    1.8419 H   0  0  0  0  0  0  0  0  0  0  0  0
    2.1552    1.5133    0.9936 H   0  0  0  0  0  0  0  0  0  0  0  0
    0.8150    1.7546   -0.1456 H   0  0  0  0  0  0  0  0  0  0  0  0
    2.7803    1.2788   -1.4828 H   0  0  0  0  0  0  0  0  0  0  0  0
    1.7534   -0.1546   -1.5824 H   0  0  0  0  0  0  0  0  0  0  0  0
    2.2614   -2.2036   -0.5467 H   0  0  0  0  0  0  0  0  0  0  0  0
    4.0169   -2.4711   -0.8463 H   0  0  0  0  0  0  0  0  0  0  0  0
    3.4071   -2.2207    0.8401 H   0  0  0  0  0  0  0  0  0  0  0  0
    5.4579   -0.6090    0.4234 H   0  0  0  0  0  0  0  0  0  0  0  0
    6.0516    1.6895    0.4609 H   0  0  0  0  0  0  0  0  0  0  0  0
    4.3307    2.1648    0.3784 H   0  0  0  0  0  0  0  0  0  0  0  0
    6.1013    1.4653   -1.7477 H   0  0  0  0  0  0  0  0  0  0  0  0
  1  2  1  0
  2  3  1  0
  2  4  2  3
  4  5  1  0
  5  6  1  0
  6  7  1  0
  7  8  1  0
  7  9  2  0
  9 10  1  0
 10 11  1  0
 11 12  1  0
 12 13  1  0
 12 14  2  0
 14 15  1  0
 15 16  1  0
  1 17  1  0
  1 18  1  0
  1 19  1  0
  3 20  1  0
  3 21  1  0
  3 22  1  0
  4 23  1  0
  5 24  1  0
  5 25  1  0
  6 26  1  0
  6 27  1  0
  8 28  1  0
  8 29  1  0
  8 30  1  0
  9 31  1  0
 10 32  1  0
 10 33  1  0
 11 34  1  0
 11 35  1  0
 13 36  1  0
 13 37  1  0
 13 38  1  0
 14 39  1  0
 15 40  1  0
 15 41  1  0
 16 42  1  0
M  END
$$$$
