
     RDKit          3D

 42 44  0  0  0  0  0  0  0  0999 V2000
   -1.7315    2.9098   -1.2067 C   0  0  0  0  0  0  0  0  0  0  0  0
   -0.8018    3.1812   -0.2880 C   0  0  0  0  0  0  0  0  0  0  0  0
    0.5960    2.7166   -0.3934 C   0  0  0  0  0  0  0  0  0  0  0  0
    1.4611    3.2957    0.3171 O   0  0  0  0  0  0  0  0  0  0  0  0
    1.0084    1.5646   -1.2928 C   0  0  0  0  0  0  0  0  0  0  0  0
    2.1198    0.7267   -0.6710 C   0  0  0  0  0  0  0  0  0  0  0  0
    1.8532   -0.5131   -0.0111 C   0  0  0  0  0  0  0  0  0  0  0  0
    2.9023   -1.1699    0.6764 C   0  0  0  0  0  0  0  0  0  0  0  0
    2.7198   -2.3922    1.3269 O   0  0  0  0  0  0  0  0  0  0  0  0
    4.1807   -0.6159    0.7000 C   0  0  0  0  0  0  0  0  0  0  0  0
    4.4618    0.5634    0.0134 C   0  0  0  0  0  0  0  0  0  0  0  0
    5.7577    1.0793    0.0160 O   0  0  0  0  0  0  0  0  0  0  0  0
    3.4457    1.2309   -0.6784 C   0  0  0  0  0  0  0  0  0  0  0  0
    3.8728    2.7054   -1.5548 Cl  0  0  0  0  0  0  0  0  0  0  0  0
    0.5353   -1.1855   -0.1088 C   0  0  0  0  0  0  0  0  0  0  0  0
    0.1256   -1.5721   -1.2361 O   0  0  0  0  0  0  0  0  0  0  0  0
   -0.2148   -1.4344    1.0552 O   0  0  0  0  0  0  0  0  0  0  0  0
   -1.3586   -2.3044    1.1602 C   0  0  2  0  0  0  0  0  0  0  0  0
   -0.9549   -3.7621    0.9188 C   0  0  0  0  0  0  0  0  0  0  0  0
   -2.5352   -1.8990    0.2428 C   0  0  0  0  0  0  0  0  0  0  0  0
   -2.9937   -0.4583    0.4890 C   0  0  1  0  0  0  0  0  0  0  0  0
   -1.9651    0.4298    0.1544 O   0  0  0  0  0  0  0  0  0  0  0  0
   -3.0825    0.4286   -0.7051 C   0  0  2  0  0  0  0  0  0  0  0  0
   -3.7853    1.7506   -0.5729 C   0  0  0  0  0  0  0  0  0  0  0  0
   -3.1509    2.9059   -0.8197 C   0  0  0  0  0  0  0  0  0  0  0  0
   -1.4622    2.4182   -2.1326 H   0  0  0  0  0  0  0  0  0  0  0  0
   -1.0988    3.6613    0.6379 H   0  0  0  0  0  0  0  0  0  0  0  0
    1.3375    1.9728   -2.2710 H   0  0  0  0  0  0  0  0  0  0  0  0
    0.1329    0.9304   -1.5215 H   0  0  0  0  0  0  0  0  0  0  0  0
    1.8501   -2.9046    1.3145 H   0  0  0  0  0  0  0  0  0  0  0  0
    4.9727   -1.1289    1.2317 H   0  0  0  0  0  0  0  0  0  0  0  0
    6.5133    0.6174    0.5086 H   0  0  0  0  0  0  0  0  0  0  0  0
   -1.7223   -2.2398    2.2090 H   0  0  0  0  0  0  0  0  0  0  0  0
   -0.5499   -3.8965   -0.1059 H   0  0  0  0  0  0  0  0  0  0  0  0
   -1.8335   -4.4299    1.0459 H   0  0  0  0  0  0  0  0  0  0  0  0
   -0.1843   -4.0680    1.6563 H   0  0  0  0  0  0  0  0  0  0  0  0
   -2.2701   -2.0648   -0.8228 H   0  0  0  0  0  0  0  0  0  0  0  0
   -3.4014   -2.5614    0.4563 H   0  0  0  0  0  0  0  0  0  0  0  0
   -3.4859   -0.1634    1.4400 H   0  0  0  0  0  0  0  0  0  0  0  0
   -2.7915    0.0628   -1.7126 H   0  0  0  0  0  0  0  0  0  0  0  0
   -4.8166    1.7669   -0.2444 H   0  0  0  0  0  0  0  0  0  0  0  0
   -3.6564    3.8457   -0.6375 H   0  0  0  0  0  0  0  0  0  0  0  0
  1  2  2  0
  2  3  1  0
  3  4  2  0
  3  5  1  0
  5  6  1  0
  6  7  2  0
  7  8  1  0
  8  9  1  0
  8 10  2  0
 10 11  1  0
 11 12  1  0
 11 13  2  0
 13 14  1  0
  7 15  1  0
 15 16  2  0
 15 17  1  0
 17 18  1  0
 18 19  1  0
 18 20  1  0
 20 21  1  0
 21 22  1  0
 22 23  1  0
 23 24  1  0
 24 25  2  0
 25  1  1  0
 13  6  1  0
 23 21  1  0
  1 26  1  0
  2 27  1  0
  5 28  1  0
  5 29  1  0
  9 30  1  0
 10 31  1  0
 12 32  1  0
 18 33  1  1
 19 34  1  0
 19 35  1  0
 19 36  1  0
 20 37  1  0
 20 38  1  0
 21 39  1  1
 23 40  1  6
 24 41  1  0
 25 42  1  0
M  END
$$$$
