
     RDKit          3D

 56 58  0  0  0  0  0  0  0  0999 V2000
   -1.1369   -5.8068    0.5477 C   0  0  0  0  0  0  0  0  0  0  0  0
    0.0716   -5.3515    1.3586 C   0  0  0  0  0  0  0  0  0  0  0  0
    0.4320   -4.0117    1.0214 O   0  0  0  0  0  0  0  0  0  0  0  0
   -0.2480   -2.8485    1.4254 C   0  0  0  0  0  0  0  0  0  0  0  0
   -1.3226   -2.8853    2.3348 C   0  0  0  0  0  0  0  0  0  0  0  0
   -1.9760   -1.7089    2.7116 C   0  0  0  0  0  0  0  0  0  0  0  0
   -1.5529   -0.4644    2.1975 C   0  0  0  0  0  0  0  0  0  0  0  0
   -0.4786   -0.4284    1.2922 C   0  0  0  0  0  0  0  0  0  0  0  0
    0.1652   -1.6127    0.8930 C   0  0  0  0  0  0  0  0  0  0  0  0
    1.2760   -1.5668   -0.0207 N   0  0  0  0  0  0  0  0  0  0  0  0
    1.3327   -0.6953   -1.1608 C   0  0  0  0  0  0  0  0  0  0  0  0
    0.3023   -0.0707   -1.5363 O   0  0  0  0  0  0  0  0  0  0  0  0
    2.5954   -0.5632   -1.9110 C   0  0  0  0  0  0  0  0  0  0  0  0
    2.7115    0.2231   -2.9864 C   0  0  0  0  0  0  0  0  0  0  0  0
    4.0122    0.3412   -3.7278 C   0  0  0  0  0  0  0  0  0  0  0  0
    5.0602    0.9198   -2.8615 N   0  0  0  0  0  0  0  0  0  0  0  0
    6.3865    0.6937   -3.4571 C   0  0  0  0  0  0  0  0  0  0  0  0
    4.8451    2.3654   -2.6730 C   0  0  0  0  0  0  0  0  0  0  0  0
   -2.2330    0.7061    2.5987 C   0  0  0  0  0  0  0  0  0  0  0  0
   -1.8173    1.9930    2.1115 N   0  0  0  0  0  0  0  0  0  0  0  0
   -2.6225    2.8109    1.2434 C   0  0  0  0  0  0  0  0  0  0  0  0
   -3.7819    2.3069    0.6225 C   0  0  0  0  0  0  0  0  0  0  0  0
   -4.5427    3.1218   -0.2235 C   0  0  0  0  0  0  0  0  0  0  0  0
   -5.9872    2.4765   -0.9845 Cl  0  0  0  0  0  0  0  0  0  0  0  0
   -4.1482    4.4437   -0.4623 C   0  0  0  0  0  0  0  0  0  0  0  0
   -4.8789    5.2408   -1.2813 F   0  0  0  0  0  0  0  0  0  0  0  0
   -2.9931    4.9466    0.1421 C   0  0  0  0  0  0  0  0  0  0  0  0
   -2.2323    4.1345    0.9878 C   0  0  0  0  0  0  0  0  0  0  0  0
   -3.3071    0.6027    3.5045 C   0  0  0  0  0  0  0  0  0  0  0  0
   -3.6861   -0.6559    3.9805 C   0  0  0  0  0  0  0  0  0  0  0  0
   -3.0200   -1.7685    3.5795 N   0  0  0  0  0  0  0  0  0  0  0  0
   -4.0086    1.7735    3.9714 C   0  0  0  0  0  0  0  0  0  0  0  0
   -4.5712    2.7133    4.3447 N   0  0  0  0  0  0  0  0  0  0  0  0
   -0.9134   -5.7299   -0.5374 H   0  0  0  0  0  0  0  0  0  0  0  0
   -1.3728   -6.8638    0.7919 H   0  0  0  0  0  0  0  0  0  0  0  0
   -2.0240   -5.1821    0.7778 H   0  0  0  0  0  0  0  0  0  0  0  0
   -0.1166   -5.4510    2.4484 H   0  0  0  0  0  0  0  0  0  0  0  0
    0.9273   -6.0140    1.1104 H   0  0  0  0  0  0  0  0  0  0  0  0
   -1.6620   -3.8204    2.7574 H   0  0  0  0  0  0  0  0  0  0  0  0
   -0.1251    0.5181    0.9058 H   0  0  0  0  0  0  0  0  0  0  0  0
    2.0516   -2.2556    0.1070 H   0  0  0  0  0  0  0  0  0  0  0  0
    3.4581   -1.1224   -1.5679 H   0  0  0  0  0  0  0  0  0  0  0  0
    1.8612    0.7880   -3.3494 H   0  0  0  0  0  0  0  0  0  0  0  0
    4.3009   -0.6807   -4.0627 H   0  0  0  0  0  0  0  0  0  0  0  0
    3.8651    0.9593   -4.6426 H   0  0  0  0  0  0  0  0  0  0  0  0
    7.1789    1.1273   -2.8093 H   0  0  0  0  0  0  0  0  0  0  0  0
    6.5902   -0.3961   -3.5331 H   0  0  0  0  0  0  0  0  0  0  0  0
    6.4566    1.1483   -4.4709 H   0  0  0  0  0  0  0  0  0  0  0  0
    5.6199    2.7816   -1.9936 H   0  0  0  0  0  0  0  0  0  0  0  0
    3.8608    2.5511   -2.1928 H   0  0  0  0  0  0  0  0  0  0  0  0
    4.8839    2.9115   -3.6421 H   0  0  0  0  0  0  0  0  0  0  0  0
   -0.8579    2.3201    2.3667 H   0  0  0  0  0  0  0  0  0  0  0  0
   -4.0942    1.2837    0.7853 H   0  0  0  0  0  0  0  0  0  0  0  0
   -2.6855    5.9675   -0.0446 H   0  0  0  0  0  0  0  0  0  0  0  0
   -1.3400    4.5388    1.4490 H   0  0  0  0  0  0  0  0  0  0  0  0
   -4.5085   -0.7546    4.6781 H   0  0  0  0  0  0  0  0  0  0  0  0
  1  2  1  0
  2  3  1  0
  3  4  1  0
  4  5  2  0
  5  6  1  0
  6  7  2  0
  7  8  1  0
  8  9  2  0
  9 10  1  0
 10 11  1  0
 11 12  2  0
 11 13  1  0
 13 14  2  0
 14 15  1  0
 15 16  1  0
 16 17  1  0
 16 18  1  0
  7 19  1  0
 19 20  1  0
 20 21  1  0
 21 22  2  0
 22 23  1  0
 23 24  1  0
 23 25  2  0
 25 26  1  0
 25 27  1  0
 27 28  2  0
 19 29  2  0
 29 30  1  0
 30 31  2  0
 29 32  1  0
 32 33  3  0
  9  4  1  0
 28 21  1  0
 31  6  1  0
  1 34  1  0
  1 35  1  0
  1 36  1  0
  2 37  1  0
  2 38  1  0
  5 39  1  0
  8 40  1  0
 10 41  1  0
 13 42  1  0
 14 43  1  0
 15 44  1  0
 15 45  1  0
 17 46  1  0
 17 47  1  0
 17 48  1  0
 18 49  1  0
 18 50  1  0
 18 51  1  0
 20 52  1  0
 22 53  1  0
 27 54  1  0
 28 55  1  0
 30 56  1  0
M  END
$$$$
