
     RDKit          3D

 50 51  0  0  0  0  0  0  0  0999 V2000
    6.4091   -0.8863   -0.6356 C   0  0  0  0  0  0  0  0  0  0  0  0
    5.5736   -0.3043    0.5207 C   0  0  0  0  0  0  0  0  0  0  0  0
    6.3665    0.8443    1.1732 C   0  0  0  0  0  0  0  0  0  0  0  0
    4.1555    0.1579    0.0451 C   0  0  1  0  0  0  0  0  0  0  0  0
    3.3710   -1.0076   -0.6124 C   0  0  0  0  0  0  0  0  0  0  0  0
    1.9581   -0.5874   -1.0353 C   0  0  0  0  0  0  0  0  0  0  0  0
    1.1677   -0.0346    0.1581 C   0  0  1  0  0  0  0  0  0  0  0  0
    1.9158    1.1524    0.7815 C   0  0  0  0  0  0  0  0  0  0  0  0
    3.3276    0.7436    1.2188 C   0  0  0  0  0  0  0  0  0  0  0  0
   -0.2175    0.3740   -0.2754 C   0  0  0  0  0  0  0  0  0  0  0  0
   -0.3638    1.3451   -1.0683 O   0  0  0  0  0  0  0  0  0  0  0  0
   -1.3648   -0.3533    0.1899 N   0  0  0  0  0  0  0  0  0  0  0  0
   -2.7253   -0.0182   -0.2421 C   0  0  2  0  0  0  0  0  0  0  0  0
   -3.7605   -0.6954    0.6765 C   0  0  0  0  0  0  0  0  0  0  0  0
   -5.1649   -0.2397    0.3679 C   0  0  0  0  0  0  0  0  0  0  0  0
   -5.9946   -1.0063   -0.4680 C   0  0  0  0  0  0  0  0  0  0  0  0
   -7.2845   -0.5638   -0.7772 C   0  0  0  0  0  0  0  0  0  0  0  0
   -7.7526    0.6473   -0.2602 C   0  0  0  0  0  0  0  0  0  0  0  0
   -6.9303    1.4197    0.5646 C   0  0  0  0  0  0  0  0  0  0  0  0
   -5.6395    0.9813    0.8760 C   0  0  0  0  0  0  0  0  0  0  0  0
   -2.9219   -0.4403   -1.6720 C   0  0  0  0  0  0  0  0  0  0  0  0
   -3.4867    0.4468   -2.5827 O   0  0  0  0  0  0  0  0  0  0  0  0
   -2.6042   -1.6031   -2.0415 O   0  0  0  0  0  0  0  0  0  0  0  0
    6.0013   -1.8638   -0.9649 H   0  0  0  0  0  0  0  0  0  0  0  0
    7.4534   -1.0796   -0.3094 H   0  0  0  0  0  0  0  0  0  0  0  0
    6.4304   -0.1839   -1.4963 H   0  0  0  0  0  0  0  0  0  0  0  0
    5.4528   -1.1052    1.2840 H   0  0  0  0  0  0  0  0  0  0  0  0
    7.4137    0.5345    1.3775 H   0  0  0  0  0  0  0  0  0  0  0  0
    6.3830    1.7356    0.5101 H   0  0  0  0  0  0  0  0  0  0  0  0
    5.9280    1.1200    2.1540 H   0  0  0  0  0  0  0  0  0  0  0  0
    4.2863    0.9588   -0.7178 H   0  0  0  0  0  0  0  0  0  0  0  0
    3.3057   -1.8658    0.0926 H   0  0  0  0  0  0  0  0  0  0  0  0
    3.8913   -1.3526   -1.5297 H   0  0  0  0  0  0  0  0  0  0  0  0
    2.0296    0.1800   -1.8384 H   0  0  0  0  0  0  0  0  0  0  0  0
    1.4294   -1.4724   -1.4529 H   0  0  0  0  0  0  0  0  0  0  0  0
    1.0837   -0.8355    0.9265 H   0  0  0  0  0  0  0  0  0  0  0  0
    1.9891    1.9897    0.0518 H   0  0  0  0  0  0  0  0  0  0  0  0
    1.3556    1.5192    1.6696 H   0  0  0  0  0  0  0  0  0  0  0  0
    3.8171    1.6560    1.6175 H   0  0  0  0  0  0  0  0  0  0  0  0
    3.2585   -0.0009    2.0427 H   0  0  0  0  0  0  0  0  0  0  0  0
   -1.2179   -1.1580    0.8413 H   0  0  0  0  0  0  0  0  0  0  0  0
   -2.8607    1.0839   -0.1632 H   0  0  0  0  0  0  0  0  0  0  0  0
   -3.5262   -0.4450    1.7347 H   0  0  0  0  0  0  0  0  0  0  0  0
   -3.6845   -1.8020    0.5859 H   0  0  0  0  0  0  0  0  0  0  0  0
   -5.6416   -1.9424   -0.8826 H   0  0  0  0  0  0  0  0  0  0  0  0
   -7.9203   -1.1586   -1.4202 H   0  0  0  0  0  0  0  0  0  0  0  0
   -8.7509    0.9888   -0.5015 H   0  0  0  0  0  0  0  0  0  0  0  0
   -7.2919    2.3600    0.9604 H   0  0  0  0  0  0  0  0  0  0  0  0
   -5.0090    1.5927    1.5097 H   0  0  0  0  0  0  0  0  0  0  0  0
   -3.6400    0.1745   -3.5462 H   0  0  0  0  0  0  0  0  0  0  0  0
  1  2  1  0
  2  3  1  0
  2  4  1  0
  4  5  1  0
  5  6  1  0
  6  7  1  0
  7  8  1  0
  8  9  1  0
  7 10  1  0
 10 11  2  0
 10 12  1  0
 12 13  1  0
 13 14  1  0
 14 15  1  0
 15 16  2  0
 16 17  1  0
 17 18  2  0
 18 19  1  0
 19 20  2  0
 13 21  1  0
 21 22  1  0
 21 23  2  0
  9  4  1  0
 20 15  1  0
  1 24  1  0
  1 25  1  0
  1 26  1  0
  2 27  1  0
  3 28  1  0
  3 29  1  0
  3 30  1  0
  4 31  1  6
  5 32  1  0
  5 33  1  0
  6 34  1  0
  6 35  1  0
  7 36  1  1
  8 37  1  0
  8 38  1  0
  9 39  1  0
  9 40  1  0
 12 41  1  0
 13 42  1  6
 14 43  1  0
 14 44  1  0
 16 45  1  0
 17 46  1  0
 18 47  1  0
 19 48  1  0
 20 49  1  0
 22 50  1  0
M  END
$$$$
