
     RDKit          3D

 64 68  0  0  0  0  0  0  0  0999 V2000
   -5.1453   -0.1501    2.0848 C   0  0  0  0  0  0  0  0  0  0  0  0
   -5.0015   -0.6469    0.6298 C   0  0  0  0  0  0  0  0  0  0  0  0
   -6.1563   -0.0937   -0.2346 C   0  0  0  0  0  0  0  0  0  0  0  0
   -5.1712   -2.1960    0.6657 C   0  0  0  0  0  0  0  0  0  0  0  0
   -5.0819   -2.7380   -0.6258 O   0  0  0  0  0  0  0  0  0  0  0  0
   -3.6059   -0.2389    0.0890 C   0  0  0  0  0  0  0  0  0  0  0  0
   -2.5637   -1.1629   -0.0892 C   0  0  0  0  0  0  0  0  0  0  0  0
   -1.4178   -0.4339   -0.2454 C   0  0  0  0  0  0  0  0  0  0  0  0
   -0.1004   -0.8682   -0.3693 C   0  0  0  0  0  0  0  0  0  0  0  0
    0.9241    0.1035   -0.3974 C   0  0  0  0  0  0  0  0  0  0  0  0
    2.3022   -0.2748   -0.5546 N   0  0  0  0  0  0  0  0  0  0  0  0
    2.8759   -1.4670    0.0024 C   0  0  0  0  0  0  0  0  0  0  0  0
    2.2580   -2.1305    0.8782 O   0  0  0  0  0  0  0  0  0  0  0  0
    4.2622   -1.8796   -0.3881 C   0  0  0  0  0  0  0  0  0  0  0  0
    4.4220   -3.3081   -0.8969 C   0  0  0  0  0  0  0  0  0  0  0  0
    4.4867   -2.1430   -1.8731 C   0  0  0  0  0  0  0  0  0  0  0  0
    5.4217   -1.3011    0.3749 C   0  0  0  0  0  0  0  0  0  0  0  0
    5.8925   -1.9435    1.5484 C   0  0  0  0  0  0  0  0  0  0  0  0
    6.9496   -1.3871    2.2912 C   0  0  0  0  0  0  0  0  0  0  0  0
    7.4980   -0.1893    1.8434 C   0  0  0  0  0  0  0  0  0  0  0  0
    8.5280    0.5460    2.3978 O   0  0  0  0  0  0  0  0  0  0  0  0
    8.7286    1.7081    1.5814 C   0  0  0  0  0  0  0  0  0  0  0  0
   10.0071    1.7091    1.0560 F   0  0  0  0  0  0  0  0  0  0  0  0
    8.5096    2.8557    2.3201 F   0  0  0  0  0  0  0  0  0  0  0  0
    7.7594    1.6019    0.5295 O   0  0  0  0  0  0  0  0  0  0  0  0
    7.0408    0.4391    0.7304 C   0  0  0  0  0  0  0  0  0  0  0  0
    5.9981   -0.0777   -0.0329 C   0  0  0  0  0  0  0  0  0  0  0  0
    0.5835    1.4747   -0.3004 C   0  0  0  0  0  0  0  0  0  0  0  0
    1.5560    2.4208   -0.3045 F   0  0  0  0  0  0  0  0  0  0  0  0
   -0.7581    1.8723   -0.1623 C   0  0  0  0  0  0  0  0  0  0  0  0
   -1.7543    0.8856   -0.1712 C   0  0  0  0  0  0  0  0  0  0  0  0
   -3.0945    1.0381   -0.0178 N   0  0  0  0  0  0  0  0  0  0  0  0
   -3.7827    2.3455    0.0214 C   0  0  0  0  0  0  0  0  0  0  0  0
   -3.8690    3.0374   -1.3654 C   0  0  1  0  0  0  0  0  0  0  0  0
   -2.5848    3.2582   -1.8843 O   0  0  0  0  0  0  0  0  0  0  0  0
   -4.7007    2.2513   -2.3924 C   0  0  0  0  0  0  0  0  0  0  0  0
   -6.0700    2.3553   -2.1112 O   0  0  0  0  0  0  0  0  0  0  0  0
   -4.3444   -0.5843    2.7219 H   0  0  0  0  0  0  0  0  0  0  0  0
   -6.1281   -0.4522    2.5076 H   0  0  0  0  0  0  0  0  0  0  0  0
   -5.0752    0.9506    2.1646 H   0  0  0  0  0  0  0  0  0  0  0  0
   -6.3674    0.9700   -0.0398 H   0  0  0  0  0  0  0  0  0  0  0  0
   -7.1096   -0.6164   -0.0026 H   0  0  0  0  0  0  0  0  0  0  0  0
   -5.9466   -0.2504   -1.3129 H   0  0  0  0  0  0  0  0  0  0  0  0
   -4.4037   -2.6585    1.3271 H   0  0  0  0  0  0  0  0  0  0  0  0
   -6.1619   -2.4632    1.1008 H   0  0  0  0  0  0  0  0  0  0  0  0
   -5.1740   -3.7205   -0.5205 H   0  0  0  0  0  0  0  0  0  0  0  0
   -2.6003   -2.2411   -0.0250 H   0  0  0  0  0  0  0  0  0  0  0  0
    0.1160   -1.9252   -0.4515 H   0  0  0  0  0  0  0  0  0  0  0  0
    2.9443    0.3891   -1.0435 H   0  0  0  0  0  0  0  0  0  0  0  0
    5.4096   -3.7843   -0.7154 H   0  0  0  0  0  0  0  0  0  0  0  0
    3.4874   -3.9033   -0.9818 H   0  0  0  0  0  0  0  0  0  0  0  0
    5.5114   -1.9470   -2.2557 H   0  0  0  0  0  0  0  0  0  0  0  0
    3.5892   -2.0617   -2.5236 H   0  0  0  0  0  0  0  0  0  0  0  0
    5.4394   -2.8685    1.8824 H   0  0  0  0  0  0  0  0  0  0  0  0
    7.3207   -1.8709    3.1851 H   0  0  0  0  0  0  0  0  0  0  0  0
    5.6452    0.4491   -0.9104 H   0  0  0  0  0  0  0  0  0  0  0  0
   -0.9916    2.9184   -0.0249 H   0  0  0  0  0  0  0  0  0  0  0  0
   -4.7905    2.2720    0.4483 H   0  0  0  0  0  0  0  0  0  0  0  0
   -3.2366    3.0180    0.7170 H   0  0  0  0  0  0  0  0  0  0  0  0
   -4.3618    4.0251   -1.2006 H   0  0  0  0  0  0  0  0  0  0  0  0
   -2.6578    3.9976   -2.5434 H   0  0  0  0  0  0  0  0  0  0  0  0
   -4.4004    1.1837   -2.3958 H   0  0  0  0  0  0  0  0  0  0  0  0
   -4.5041    2.6411   -3.4177 H   0  0  0  0  0  0  0  0  0  0  0  0
   -6.3550    3.2604   -2.4033 H   0  0  0  0  0  0  0  0  0  0  0  0
  1  2  1  0
  2  3  1  0
  2  4  1  0
  4  5  1  0
  2  6  1  0
  6  7  2  0
  7  8  1  0
  8  9  2  0
  9 10  1  0
 10 11  1  0
 11 12  1  0
 12 13  2  0
 12 14  1  0
 14 15  1  0
 15 16  1  0
 14 17  1  0
 17 18  2  0
 18 19  1  0
 19 20  2  0
 20 21  1  0
 21 22  1  0
 22 23  1  0
 22 24  1  0
 22 25  1  0
 25 26  1  0
 26 27  2  0
 10 28  2  0
 28 29  1  0
 28 30  1  0
 30 31  2  0
 31 32  1  0
 32 33  1  0
 33 34  1  0
 34 35  1  0
 34 36  1  0
 36 37  1  0
 32  6  1  0
 31  8  1  0
 16 14  1  0
 27 17  1  0
 26 20  1  0
  1 38  1  0
  1 39  1  0
  1 40  1  0
  3 41  1  0
  3 42  1  0
  3 43  1  0
  4 44  1  0
  4 45  1  0
  5 46  1  0
  7 47  1  0
  9 48  1  0
 11 49  1  0
 15 50  1  0
 15 51  1  0
 16 52  1  0
 16 53  1  0
 18 54  1  0
 19 55  1  0
 27 56  1  0
 30 57  1  0
 33 58  1  0
 33 59  1  0
 34 60  1  1
 35 61  1  0
 36 62  1  0
 36 63  1  0
 37 64  1  0
M  END
$$$$
