
     RDKit          3D

 67 72  0  0  0  0  0  0  0  0999 V2000
    1.3042   -1.0088    0.3420 C   0  0  0  0  0  0  0  0  0  0  0  0
   -0.0575   -0.4518    0.6611 C   0  0  0  0  0  0  0  0  0  0  0  0
   -0.3082    0.9955    0.1385 C   0  0  2  0  0  0  0  0  0  0  0  0
   -1.7013    1.5177    0.6422 C   0  0  0  0  0  0  0  0  0  0  0  0
   -2.9063    0.6313    0.3892 C   0  0  0  0  0  0  0  0  0  0  0  0
   -3.7912    0.9147   -0.6647 C   0  0  0  0  0  0  0  0  0  0  0  0
   -4.9122    0.1111   -0.8872 C   0  0  0  0  0  0  0  0  0  0  0  0
   -5.1951   -0.9702   -0.0355 C   0  0  0  0  0  0  0  0  0  0  0  0
   -4.3232   -1.2396    1.0332 C   0  0  0  0  0  0  0  0  0  0  0  0
   -3.2024   -0.4354    1.2544 C   0  0  0  0  0  0  0  0  0  0  0  0
   -6.3732   -1.8747   -0.3101 C   0  0  0  0  0  0  0  0  0  0  0  0
   -7.4009   -1.1658   -0.9084 F   0  0  0  0  0  0  0  0  0  0  0  0
   -6.8557   -2.4137    0.8703 F   0  0  0  0  0  0  0  0  0  0  0  0
   -5.8668   -3.2296   -1.4153 P   0  0  0  0  0  5  0  0  0  0  0  0
   -4.5970   -4.0995   -0.7114 O   0  0  0  0  0  0  0  0  0  0  0  0
   -7.1834   -4.2608   -1.6732 O   0  0  0  0  0  0  0  0  0  0  0  0
   -5.4090   -2.6605   -2.7392 O   0  0  0  0  0  0  0  0  0  0  0  0
   -0.2570    0.9867   -1.3482 N   0  0  0  0  0  0  0  0  0  0  0  0
   -1.2793    0.5842   -2.1009 N   0  0  0  0  0  0  0  0  0  0  0  0
   -0.9706    0.5510   -3.3932 N   0  0  0  0  0  0  0  0  0  0  0  0
    0.3127    0.9275   -3.4661 C   0  0  0  0  0  0  0  0  0  0  0  0
    1.1145    1.0184   -4.5992 C   0  0  0  0  0  0  0  0  0  0  0  0
    2.4577    1.3888   -4.4169 C   0  0  0  0  0  0  0  0  0  0  0  0
    2.9578    1.6438   -3.1214 C   0  0  0  0  0  0  0  0  0  0  0  0
    2.1192    1.5388   -1.9957 C   0  0  0  0  0  0  0  0  0  0  0  0
    0.7772    1.1847   -2.2083 C   0  0  0  0  0  0  0  0  0  0  0  0
    0.6925    1.9909    0.7084 C   0  0  0  0  0  0  0  0  0  0  0  0
    0.7986    3.2622    0.2392 N   0  0  0  0  0  0  0  0  0  0  0  0
    1.6739    3.9938    0.9741 C   0  0  0  0  0  0  0  0  0  0  0  0
    1.9999    5.3260    0.7152 C   0  0  0  0  0  0  0  0  0  0  0  0
    2.9185    5.9727    1.5605 C   0  0  0  0  0  0  0  0  0  0  0  0
    3.4934    5.2857    2.6488 C   0  0  0  0  0  0  0  0  0  0  0  0
    3.1547    3.9466    2.9010 C   0  0  0  0  0  0  0  0  0  0  0  0
    2.2455    3.3295    2.0461 C   0  0  0  0  0  0  0  0  0  0  0  0
    1.6462    1.7660    2.1005 S   0  0  0  0  0  0  0  0  0  0  0  0
    1.6181   -2.2666    0.6728 C   0  0  0  0  0  0  0  0  0  0  0  0
    2.9341   -2.8900    0.3896 C   0  0  0  0  0  0  0  0  0  0  0  0
    4.1015   -2.1309    0.1615 C   0  0  0  0  0  0  0  0  0  0  0  0
    5.3198   -2.7683   -0.0937 C   0  0  0  0  0  0  0  0  0  0  0  0
    5.3917   -4.1626   -0.1159 C   0  0  0  0  0  0  0  0  0  0  0  0
    4.2462   -4.9240    0.1241 C   0  0  0  0  0  0  0  0  0  0  0  0
    3.0253   -4.2927    0.3803 C   0  0  0  0  0  0  0  0  0  0  0  0
    2.0211   -0.3897   -0.1648 H   0  0  0  0  0  0  0  0  0  0  0  0
   -0.8048   -1.1344    0.2023 H   0  0  0  0  0  0  0  0  0  0  0  0
   -0.1973   -0.4828    1.7637 H   0  0  0  0  0  0  0  0  0  0  0  0
   -1.8915    2.5181    0.1923 H   0  0  0  0  0  0  0  0  0  0  0  0
   -1.6496    1.6944    1.7409 H   0  0  0  0  0  0  0  0  0  0  0  0
   -3.6081    1.7543   -1.3239 H   0  0  0  0  0  0  0  0  0  0  0  0
   -5.5572    0.3335   -1.7280 H   0  0  0  0  0  0  0  0  0  0  0  0
   -4.5079   -2.0742    1.6978 H   0  0  0  0  0  0  0  0  0  0  0  0
   -2.5648   -0.6484    2.1023 H   0  0  0  0  0  0  0  0  0  0  0  0
   -4.9800   -4.4772    0.1201 H   0  0  0  0  0  0  0  0  0  0  0  0
   -6.8164   -5.0101   -2.2069 H   0  0  0  0  0  0  0  0  0  0  0  0
    0.7215    0.8033   -5.5844 H   0  0  0  0  0  0  0  0  0  0  0  0
    3.1146    1.4691   -5.2731 H   0  0  0  0  0  0  0  0  0  0  0  0
    3.9974    1.9157   -2.9920 H   0  0  0  0  0  0  0  0  0  0  0  0
    2.5371    1.7160   -1.0184 H   0  0  0  0  0  0  0  0  0  0  0  0
    1.5558    5.8526   -0.1199 H   0  0  0  0  0  0  0  0  0  0  0  0
    3.1848    7.0051    1.3750 H   0  0  0  0  0  0  0  0  0  0  0  0
    4.1982    5.7933    3.2944 H   0  0  0  0  0  0  0  0  0  0  0  0
    3.5879    3.4111    3.7357 H   0  0  0  0  0  0  0  0  0  0  0  0
    0.8562   -2.8829    1.1377 H   0  0  0  0  0  0  0  0  0  0  0  0
    4.0902   -1.0507    0.2015 H   0  0  0  0  0  0  0  0  0  0  0  0
    6.2114   -2.1796   -0.2675 H   0  0  0  0  0  0  0  0  0  0  0  0
    6.3363   -4.6530   -0.3126 H   0  0  0  0  0  0  0  0  0  0  0  0
    4.3039   -6.0048    0.1125 H   0  0  0  0  0  0  0  0  0  0  0  0
    2.1478   -4.9011    0.5632 H   0  0  0  0  0  0  0  0  0  0  0  0
  1  2  1  0
  3  2  1  1
  3  4  1  0
  4  5  1  0
  5  6  2  0
  6  7  1  0
  7  8  2  0
  8  9  1  0
  9 10  2  0
  8 11  1  0
 11 12  1  0
 11 13  1  0
 11 14  1  0
 14 15  1  0
 14 16  1  0
 14 17  2  0
  3 18  1  0
 18 19  1  0
 19 20  2  0
 20 21  1  0
 21 22  2  0
 22 23  1  0
 23 24  2  0
 24 25  1  0
 25 26  2  0
  3 27  1  0
 27 28  2  0
 28 29  1  0
 29 30  2  0
 30 31  1  0
 31 32  2  0
 32 33  1  0
 33 34  2  0
 34 35  1  0
  1 36  2  0
 36 37  1  0
 37 38  2  0
 38 39  1  0
 39 40  2  0
 40 41  1  0
 41 42  2  0
 10  5  1  0
 26 18  1  0
 35 27  1  0
 42 37  1  0
 26 21  1  0
 34 29  1  0
  1 43  1  0
  2 44  1  0
  2 45  1  0
  4 46  1  0
  4 47  1  0
  6 48  1  0
  7 49  1  0
  9 50  1  0
 10 51  1  0
 15 52  1  0
 16 53  1  0
 22 54  1  0
 23 55  1  0
 24 56  1  0
 25 57  1  0
 30 58  1  0
 31 59  1  0
 32 60  1  0
 33 61  1  0
 36 62  1  0
 38 63  1  0
 39 64  1  0
 40 65  1  0
 41 66  1  0
 42 67  1  0
M  END
$$$$
