
     RDKit          3D

 37 39  0  0  0  0  0  0  0  0999 V2000
   -5.5384   -0.9068    1.9966 N   0  0  0  0  0  0  0  0  0  0  0  0
   -5.4334   -0.3673    0.6729 C   0  0  0  0  0  0  0  0  0  0  0  0
   -6.5073    0.0014    0.0472 N   0  0  0  0  0  0  0  0  0  0  0  0
   -4.1148   -0.2392    0.0032 C   0  0  0  0  0  0  0  0  0  0  0  0
   -2.9269   -0.1153    0.7642 C   0  0  0  0  0  0  0  0  0  0  0  0
   -1.7183    0.0084    0.0836 C   0  0  0  0  0  0  0  0  0  0  0  0
   -1.6529    0.0164   -1.2830 C   0  0  0  0  0  0  0  0  0  0  0  0
   -0.3830    0.1397   -1.7027 N   0  0  0  0  0  0  0  0  0  0  0  0
    0.3680    0.2221   -0.5777 C   0  0  0  0  0  0  0  0  0  0  0  0
   -0.4319    0.1326    0.5610 C   0  0  0  0  0  0  0  0  0  0  0  0
    1.8434    0.3100   -0.5739 C   0  0  0  0  0  0  0  0  0  0  0  0
    2.5423    1.2073   -1.4160 C   0  0  0  0  0  0  0  0  0  0  0  0
    1.8767    2.1408   -2.2146 O   0  0  0  0  0  0  0  0  0  0  0  0
    3.9454    1.1944   -1.4304 C   0  0  0  0  0  0  0  0  0  0  0  0
    4.9188    2.3892   -2.5658 Br  0  0  0  0  0  0  0  0  0  0  0  0
    4.6531    0.3281   -0.5935 C   0  0  0  0  0  0  0  0  0  0  0  0
    3.9707   -0.5462    0.2622 C   0  0  0  0  0  0  0  0  0  0  0  0
    4.7354   -1.4479    1.1917 C   0  0  0  0  0  0  0  0  0  0  0  0
    4.9623   -0.7621    2.5005 C   0  0  0  0  0  0  0  0  0  0  0  0
    4.0111   -0.8559    3.5085 O   0  0  0  0  0  1  0  0  0  0  0  0
    5.9928   -0.0608    2.6781 O   0  0  0  0  0  0  0  0  0  0  0  0
    2.5687   -0.5424    0.2755 C   0  0  0  0  0  0  0  0  0  0  0  0
   -2.7948   -0.0991   -2.0695 C   0  0  0  0  0  0  0  0  0  0  0  0
   -4.0344   -0.2227   -1.4171 C   0  0  0  0  0  0  0  0  0  0  0  0
   -4.7237   -1.3555    2.4692 H   0  0  0  0  0  0  0  0  0  0  0  0
   -6.4602   -0.9338    2.4868 H   0  0  0  0  0  0  0  0  0  0  0  0
   -7.4535   -0.0783    0.4821 H   0  0  0  0  0  0  0  0  0  0  0  0
   -2.9381   -0.0917    1.8457 H   0  0  0  0  0  0  0  0  0  0  0  0
   -0.0465    0.1395   -2.6917 H   0  0  0  0  0  0  0  0  0  0  0  0
   -0.1139    0.1529    1.5955 H   0  0  0  0  0  0  0  0  0  0  0  0
    0.8821    2.3133   -2.1529 H   0  0  0  0  0  0  0  0  0  0  0  0
    5.7361    0.3430   -0.6033 H   0  0  0  0  0  0  0  0  0  0  0  0
    5.7122   -1.7299    0.7411 H   0  0  0  0  0  0  0  0  0  0  0  0
    4.1723   -2.3909    1.3625 H   0  0  0  0  0  0  0  0  0  0  0  0
    2.0420   -1.2240    0.9336 H   0  0  0  0  0  0  0  0  0  0  0  0
   -2.7323   -0.0933   -3.1501 H   0  0  0  0  0  0  0  0  0  0  0  0
   -4.9290   -0.3174   -2.0196 H   0  0  0  0  0  0  0  0  0  0  0  0
  1  2  1  0
  2  3  2  3
  2  4  1  0
  4  5  2  0
  5  6  1  0
  6  7  2  0
  7  8  1  0
  8  9  1  0
  9 10  2  0
  9 11  1  0
 11 12  2  0
 12 13  1  0
 12 14  1  0
 14 15  1  0
 14 16  2  0
 16 17  1  0
 17 18  1  0
 18 19  1  0
 19 20  1  0
 19 21  2  0
 17 22  2  0
  7 23  1  0
 23 24  2  0
 24  4  1  0
 10  6  1  0
 22 11  1  0
  1 25  1  0
  1 26  1  0
  3 27  1  0
  5 28  1  0
  8 29  1  0
 10 30  1  0
 13 31  1  0
 16 32  1  0
 18 33  1  0
 18 34  1  0
 22 35  1  0
 23 36  1  0
 24 37  1  0
M  CHG  1  20  -1
M  END
$$$$
