
     RDKit          3D

 41 42  0  0  0  0  0  0  0  0999 V2000
    7.2342   -0.0281    1.0816 C   0  0  0  0  0  0  0  0  0  0  0  0
    6.1965    0.2903    0.1599 O   0  0  0  0  0  0  0  0  0  0  0  0
    4.8246    0.2108    0.4481 C   0  0  0  0  0  0  0  0  0  0  0  0
    4.3488   -0.1984    1.7067 C   0  0  0  0  0  0  0  0  0  0  0  0
    2.9775   -0.2683    1.9556 C   0  0  0  0  0  0  0  0  0  0  0  0
    2.0517    0.0558    0.9545 C   0  0  0  0  0  0  0  0  0  0  0  0
    0.6047   -0.0266    1.2726 C   0  0  0  0  0  0  0  0  0  0  0  0
   -0.3523   -0.1765    0.3455 C   0  0  0  0  0  0  0  0  0  0  0  0
   -1.7827   -0.2668    0.6974 C   0  0  0  0  0  0  0  0  0  0  0  0
   -2.1509   -0.1654    1.9003 O   0  0  0  0  0  0  0  0  0  0  0  0
   -2.7569   -0.4414   -0.3423 N   0  0  0  0  0  0  0  0  0  0  0  0
   -4.1509   -0.6750   -0.0808 C   0  0  0  0  0  0  0  0  0  0  0  0
   -4.5224   -1.6619    0.8500 C   0  0  0  0  0  0  0  0  0  0  0  0
   -5.8660   -1.9753    1.0564 C   0  0  0  0  0  0  0  0  0  0  0  0
   -6.8557   -1.3183    0.3282 C   0  0  0  0  0  0  0  0  0  0  0  0
   -6.5062   -0.3395   -0.6036 C   0  0  0  0  0  0  0  0  0  0  0  0
   -5.1567    0.0024   -0.8169 C   0  0  0  0  0  0  0  0  0  0  0  0
   -4.8354    1.0903   -1.7732 C   0  0  0  0  0  0  0  0  0  0  0  0
   -3.6518    1.8141   -1.6570 O   0  0  0  0  0  0  0  0  0  0  0  0
   -5.6530    1.3934   -2.6841 O   0  0  0  0  0  0  0  0  0  0  0  0
    2.5269    0.4835   -0.3002 C   0  0  0  0  0  0  0  0  0  0  0  0
    3.9105    0.5569   -0.5582 C   0  0  0  0  0  0  0  0  0  0  0  0
    4.4164    0.9726   -1.8005 O   0  0  0  0  0  0  0  0  0  0  0  0
    3.6147    1.3507   -2.9150 C   0  0  0  0  0  0  0  0  0  0  0  0
    8.2160    0.1226    0.5880 H   0  0  0  0  0  0  0  0  0  0  0  0
    7.1535   -1.0902    1.3955 H   0  0  0  0  0  0  0  0  0  0  0  0
    7.1758    0.6388    1.9676 H   0  0  0  0  0  0  0  0  0  0  0  0
    5.0315   -0.4651    2.5018 H   0  0  0  0  0  0  0  0  0  0  0  0
    2.6376   -0.5875    2.9337 H   0  0  0  0  0  0  0  0  0  0  0  0
    0.3239   -0.0085    2.3195 H   0  0  0  0  0  0  0  0  0  0  0  0
   -0.0921   -0.2653   -0.7002 H   0  0  0  0  0  0  0  0  0  0  0  0
   -2.4426   -0.3778   -1.3369 H   0  0  0  0  0  0  0  0  0  0  0  0
   -3.7666   -2.2118    1.3961 H   0  0  0  0  0  0  0  0  0  0  0  0
   -6.1394   -2.7392    1.7729 H   0  0  0  0  0  0  0  0  0  0  0  0
   -7.8973   -1.5663    0.4869 H   0  0  0  0  0  0  0  0  0  0  0  0
   -7.2964    0.1654   -1.1456 H   0  0  0  0  0  0  0  0  0  0  0  0
   -3.4347    2.5646   -2.3018 H   0  0  0  0  0  0  0  0  0  0  0  0
    1.8278    0.7837   -1.0658 H   0  0  0  0  0  0  0  0  0  0  0  0
    4.2772    1.6236   -3.7618 H   0  0  0  0  0  0  0  0  0  0  0  0
    2.9701    0.5021   -3.2275 H   0  0  0  0  0  0  0  0  0  0  0  0
    2.9902    2.2314   -2.6551 H   0  0  0  0  0  0  0  0  0  0  0  0
  1  2  1  0
  2  3  1  0
  3  4  2  0
  4  5  1  0
  5  6  2  0
  6  7  1  0
  7  8  2  0
  8  9  1  0
  9 10  2  0
  9 11  1  0
 11 12  1  0
 12 13  2  0
 13 14  1  0
 14 15  2  0
 15 16  1  0
 16 17  2  0
 17 18  1  0
 18 19  1  0
 18 20  2  0
  6 21  1  0
 21 22  2  0
 22 23  1  0
 23 24  1  0
 22  3  1  0
 17 12  1  0
  1 25  1  0
  1 26  1  0
  1 27  1  0
  4 28  1  0
  5 29  1  0
  7 30  1  0
  8 31  1  0
 11 32  1  0
 13 33  1  0
 14 34  1  0
 15 35  1  0
 16 36  1  0
 19 37  1  0
 21 38  1  0
 24 39  1  0
 24 40  1  0
 24 41  1  0
M  END
$$$$
