
     RDKit          3D

 42 45  0  0  0  0  0  0  0  0999 V2000
    5.6327   -2.8616    1.2207 N   0  0  0  0  0  0  0  0  0  0  0  0
    5.8545   -1.4923    0.8621 C   0  0  0  0  0  0  0  0  0  0  0  0
    7.0614   -1.0884    0.5957 N   0  0  0  0  0  4  0  0  0  0  0  0
    4.7076   -0.5529    0.7886 C   0  0  0  0  0  0  0  0  0  0  0  0
    4.8478    0.7967    1.2131 C   0  0  0  0  0  0  0  0  0  0  0  0
    3.7626    1.6890    1.1473 C   0  0  0  0  0  0  0  0  0  0  0  0
    2.5515    1.2080    0.6579 C   0  0  0  0  0  0  0  0  0  0  0  0
    1.4050    1.8904    0.5059 N   0  0  0  0  0  0  0  0  0  0  0  0
    0.5114    1.0048   -0.0008 C   0  0  0  0  0  0  0  0  0  0  0  0
    1.1063   -0.2463   -0.1780 C   0  0  0  0  0  0  0  0  0  0  0  0
    2.4053   -0.0901    0.2528 C   0  0  0  0  0  0  0  0  0  0  0  0
    3.4577   -1.0007    0.3007 C   0  0  0  0  0  0  0  0  0  0  0  0
   -0.8859    1.3567   -0.3500 C   0  0  0  0  0  0  0  0  0  0  0  0
   -1.1680    2.6427   -0.8393 C   0  0  0  0  0  0  0  0  0  0  0  0
   -2.4714    3.0009   -1.1823 C   0  0  0  0  0  0  0  0  0  0  0  0
   -3.5108    2.0820   -1.0455 C   0  0  0  0  0  0  0  0  0  0  0  0
   -3.2593    0.7897   -0.5574 C   0  0  0  0  0  0  0  0  0  0  0  0
   -1.9431    0.4333   -0.1914 C   0  0  0  0  0  0  0  0  0  0  0  0
   -1.6991   -0.8169    0.3711 O   0  0  0  0  0  1  0  0  0  0  0  0
   -4.3806   -0.1720   -0.4234 C   0  0  0  0  0  0  0  0  0  0  0  0
   -5.5759    0.2143    0.2097 C   0  0  0  0  0  0  0  0  0  0  0  0
   -6.6366   -0.6890    0.3280 C   0  0  0  0  0  0  0  0  0  0  0  0
   -6.5171   -1.9818   -0.1880 C   0  0  0  0  0  0  0  0  0  0  0  0
   -5.3373   -2.3731   -0.8257 C   0  0  0  0  0  0  0  0  0  0  0  0
   -4.2734   -1.4736   -0.9461 C   0  0  0  0  0  0  0  0  0  0  0  0
    6.4221   -3.5452    1.2331 H   0  0  0  0  0  0  0  0  0  0  0  0
    4.6906   -3.1933    1.5245 H   0  0  0  0  0  0  0  0  0  0  0  0
    7.2596   -0.1084    0.2945 H   0  0  0  0  0  0  0  0  0  0  0  0
    7.8691   -1.7484    0.6502 H   0  0  0  0  0  0  0  0  0  0  0  0
    5.7886    1.1538    1.6118 H   0  0  0  0  0  0  0  0  0  0  0  0
    3.8665    2.7167    1.4704 H   0  0  0  0  0  0  0  0  0  0  0  0
    1.2405    2.8940    0.7441 H   0  0  0  0  0  0  0  0  0  0  0  0
    0.6629   -1.1421   -0.5922 H   0  0  0  0  0  0  0  0  0  0  0  0
    3.3140   -2.0164   -0.0460 H   0  0  0  0  0  0  0  0  0  0  0  0
   -0.3760    3.3683   -0.9754 H   0  0  0  0  0  0  0  0  0  0  0  0
   -2.6752    3.9926   -1.5653 H   0  0  0  0  0  0  0  0  0  0  0  0
   -4.5127    2.3759   -1.3337 H   0  0  0  0  0  0  0  0  0  0  0  0
   -5.6825    1.2099    0.6223 H   0  0  0  0  0  0  0  0  0  0  0  0
   -7.5515   -0.3867    0.8211 H   0  0  0  0  0  0  0  0  0  0  0  0
   -7.3396   -2.6793   -0.0962 H   0  0  0  0  0  0  0  0  0  0  0  0
   -5.2484   -3.3727   -1.2311 H   0  0  0  0  0  0  0  0  0  0  0  0
   -3.3736   -1.7881   -1.4601 H   0  0  0  0  0  0  0  0  0  0  0  0
  1  2  1  0
  2  3  2  3
  2  4  1  0
  4  5  2  0
  5  6  1  0
  6  7  2  0
  7  8  1  0
  8  9  1  0
  9 10  2  0
 10 11  1  0
 11 12  2  0
  9 13  1  0
 13 14  2  0
 14 15  1  0
 15 16  2  0
 16 17  1  0
 17 18  2  0
 18 19  1  0
 17 20  1  0
 20 21  2  0
 21 22  1  0
 22 23  2  0
 23 24  1  0
 24 25  2  0
 12  4  1  0
 18 13  1  0
 25 20  1  0
 11  7  1  0
  1 26  1  0
  1 27  1  0
  3 28  1  0
  3 29  1  0
  5 30  1  0
  6 31  1  0
  8 32  1  0
 10 33  1  0
 12 34  1  0
 14 35  1  0
 15 36  1  0
 16 37  1  0
 21 38  1  0
 22 39  1  0
 23 40  1  0
 24 41  1  0
 25 42  1  0
M  CHG  2   3   1  19  -1
M  END
$$$$
