
     RDKit          3D

 27 27  0  0  0  0  0  0  0  0999 V2000
    1.5776   -0.4582    1.0763 N   0  0  0  0  0  0  0  0  0  0  0  0
    1.4194    0.4644   -0.0136 C   0  0  0  0  0  0  0  0  0  0  0  0
    2.5333    1.2505   -0.4546 N   0  0  0  0  0  0  0  0  0  0  0  0
    3.7465    0.8238   -0.6597 C   0  0  0  0  0  0  0  0  0  0  0  0
    4.7598    1.7660   -1.0107 N   0  0  0  0  0  0  0  0  0  0  0  0
    4.0751   -0.5707   -0.6142 N   0  0  0  0  0  0  0  0  0  0  0  0
    0.2481    0.7145   -0.5230 N   0  0  0  0  0  0  0  0  0  0  0  0
   -0.9671    0.0264   -0.1972 C   0  0  0  0  0  0  0  0  0  0  0  0
   -1.1465   -1.3346   -0.5136 C   0  0  0  0  0  0  0  0  0  0  0  0
    0.1052   -2.2580   -1.3361 Cl  0  0  0  0  0  0  0  0  0  0  0  0
   -2.3594   -1.9625   -0.2144 C   0  0  0  0  0  0  0  0  0  0  0  0
   -3.3962   -1.2458    0.3877 C   0  0  0  0  0  0  0  0  0  0  0  0
   -3.2311    0.1125    0.7065 C   0  0  0  0  0  0  0  0  0  0  0  0
   -2.0205    0.7476    0.3791 C   0  0  0  0  0  0  0  0  0  0  0  0
   -4.3714    0.9027    1.2978 C   0  0  0  0  0  0  0  0  0  0  0  0
   -5.1300    1.4412    0.2754 F   0  0  0  0  0  0  0  0  0  0  0  0
   -5.1771    0.0910    2.0778 F   0  0  0  0  0  0  0  0  0  0  0  0
   -3.8930    1.9293    2.0935 F   0  0  0  0  0  0  0  0  0  0  0  0
    0.7768   -1.0029    1.4642 H   0  0  0  0  0  0  0  0  0  0  0  0
    2.4920   -0.5314    1.5742 H   0  0  0  0  0  0  0  0  0  0  0  0
    4.5386    2.7848   -1.0737 H   0  0  0  0  0  0  0  0  0  0  0  0
    5.7347    1.4485   -1.2072 H   0  0  0  0  0  0  0  0  0  0  0  0
    3.3417   -1.3127   -0.6049 H   0  0  0  0  0  0  0  0  0  0  0  0
    5.0695   -0.8737   -0.7094 H   0  0  0  0  0  0  0  0  0  0  0  0
   -2.5065   -3.0059   -0.4632 H   0  0  0  0  0  0  0  0  0  0  0  0
   -4.3318   -1.7509    0.5927 H   0  0  0  0  0  0  0  0  0  0  0  0
   -1.8875    1.8039    0.5796 H   0  0  0  0  0  0  0  0  0  0  0  0
  1  2  1  0
  2  3  1  0
  3  4  2  0
  4  5  1  0
  4  6  1  0
  2  7  2  0
  7  8  1  0
  8  9  2  0
  9 10  1  0
  9 11  1  0
 11 12  2  0
 12 13  1  0
 13 14  2  0
 13 15  1  0
 15 16  1  0
 15 17  1  0
 15 18  1  0
 14  8  1  0
  1 19  1  0
  1 20  1  0
  5 21  1  0
  5 22  1  0
  6 23  1  0
  6 24  1  0
 11 25  1  0
 12 26  1  0
 14 27  1  0
M  END
$$$$
