
     RDKit          3D

 32 34  0  0  0  0  0  0  0  0999 V2000
    4.2400   -0.9704   -0.3759 C   0  0  0  0  0  0  0  0  0  0  0  0
    2.9881   -0.2320   -0.6009 N   0  0  0  0  0  0  0  0  0  0  0  0
    1.9195   -1.1663   -1.0061 C   0  0  0  0  0  0  0  0  0  0  0  0
    0.6349   -0.3954   -1.3150 C   0  0  0  0  0  0  0  0  0  0  0  0
    0.2838    0.4613   -0.1778 N   0  0  0  0  0  0  0  0  0  0  0  0
    1.3358    1.3137    0.3846 C   0  0  0  0  0  0  0  0  0  0  0  0
    2.6002    0.4863    0.6291 C   0  0  0  0  0  0  0  0  0  0  0  0
   -1.0987    0.7265    0.1204 C   0  0  0  0  0  0  0  0  0  0  0  0
   -1.9950   -0.3108    0.3934 C   0  0  0  0  0  0  0  0  0  0  0  0
   -1.7737   -1.6030    0.4407 O   0  0  0  0  0  0  0  0  0  0  0  0
   -2.9371   -2.1494    0.7489 C   0  0  0  0  0  0  0  0  0  0  0  0
   -3.1052   -3.3899    0.8811 O   0  0  0  0  0  0  0  0  0  0  0  0
   -3.9302   -1.2439    0.9114 N   0  0  0  0  0  0  0  0  0  0  0  0
   -3.3100   -0.0763    0.6826 C   0  0  0  0  0  0  0  0  0  0  0  0
   -3.8407    1.2094    0.7298 C   0  0  0  0  0  0  0  0  0  0  0  0
   -2.9689    2.2824    0.4675 C   0  0  0  0  0  0  0  0  0  0  0  0
   -1.6072    2.0458    0.1676 C   0  0  0  0  0  0  0  0  0  0  0  0
    4.1249   -1.7255    0.4338 H   0  0  0  0  0  0  0  0  0  0  0  0
    4.5529   -1.4855   -1.3095 H   0  0  0  0  0  0  0  0  0  0  0  0
    5.0549   -0.2665   -0.1013 H   0  0  0  0  0  0  0  0  0  0  0  0
    1.7180   -1.9128   -0.2035 H   0  0  0  0  0  0  0  0  0  0  0  0
    2.2225   -1.7166   -1.9243 H   0  0  0  0  0  0  0  0  0  0  0  0
   -0.1771   -1.1181   -1.5422 H   0  0  0  0  0  0  0  0  0  0  0  0
    0.7901    0.2393   -2.2144 H   0  0  0  0  0  0  0  0  0  0  0  0
    1.0044    1.7547    1.3504 H   0  0  0  0  0  0  0  0  0  0  0  0
    1.5601    2.1395   -0.3251 H   0  0  0  0  0  0  0  0  0  0  0  0
    2.4174   -0.2281    1.4648 H   0  0  0  0  0  0  0  0  0  0  0  0
    3.4135    1.1799    0.9375 H   0  0  0  0  0  0  0  0  0  0  0  0
   -4.9305   -1.4123    1.1602 H   0  0  0  0  0  0  0  0  0  0  0  0
   -4.8836    1.3790    0.9638 H   0  0  0  0  0  0  0  0  0  0  0  0
   -3.3441    3.2971    0.4955 H   0  0  0  0  0  0  0  0  0  0  0  0
   -0.9589    2.8877   -0.0381 H   0  0  0  0  0  0  0  0  0  0  0  0
  1  2  1  0
  2  3  1  0
  3  4  1  0
  4  5  1  0
  5  6  1  0
  6  7  1  0
  5  8  1  0
  8  9  2  0
  9 10  1  0
 10 11  1  0
 11 12  2  0
 11 13  1  0
 13 14  1  0
 14 15  2  0
 15 16  1  0
 16 17  2  0
  7  2  1  0
 17  8  1  0
 14  9  1  0
  1 18  1  0
  1 19  1  0
  1 20  1  0
  3 21  1  0
  3 22  1  0
  4 23  1  0
  4 24  1  0
  6 25  1  0
  6 26  1  0
  7 27  1  0
  7 28  1  0
 13 29  1  0
 15 30  1  0
 16 31  1  0
 17 32  1  0
M  END
$$$$
