
     RDKit          3D

 38 39  0  0  0  0  0  0  0  0999 V2000
   -2.7330   -2.5574    0.3273 C   0  0  0  0  0  0  0  0  0  0  0  0
   -2.1888   -1.3087    0.8634 N   0  0  0  0  0  0  0  0  0  0  0  0
   -2.6619   -0.7598    2.1380 C   0  0  0  0  0  0  0  0  0  0  0  0
   -3.5084    0.7885    1.8690 S   0  0  0  0  0  6  0  0  0  0  0  0
   -2.4463    1.9310    1.2413 O   0  0  0  0  0  0  0  0  0  0  0  0
   -4.6360    0.5762    0.8990 O   0  0  0  0  0  0  0  0  0  0  0  0
   -4.0652    1.2888    3.1718 O   0  0  0  0  0  0  0  0  0  0  0  0
   -1.0626   -0.7088    0.2095 C   0  0  0  0  0  0  0  0  0  0  0  0
   -1.0391   -0.0529   -1.0116 C   0  0  0  0  0  0  0  0  0  0  0  0
   -2.2174    0.2387   -1.8920 C   0  0  0  0  0  0  0  0  0  0  0  0
    0.2305    0.3672   -1.2441 N   0  0  0  0  0  0  0  0  0  0  0  0
    0.6856    1.1153   -2.4192 C   0  0  0  0  0  0  0  0  0  0  0  0
    1.0043   -0.0175   -0.2293 N   0  0  0  0  0  0  0  0  0  0  0  0
    0.2328   -0.6612    0.6700 C   0  0  0  0  0  0  0  0  0  0  0  0
    0.6535   -1.1658    1.7456 O   0  0  0  0  0  0  0  0  0  0  0  0
    2.4212    0.2039   -0.1152 C   0  0  0  0  0  0  0  0  0  0  0  0
    3.2908   -0.2136   -1.1356 C   0  0  0  0  0  0  0  0  0  0  0  0
    4.6685   -0.0063   -1.0155 C   0  0  0  0  0  0  0  0  0  0  0  0
    5.1867    0.6122    0.1257 C   0  0  0  0  0  0  0  0  0  0  0  0
    4.3282    1.0209    1.1501 C   0  0  0  0  0  0  0  0  0  0  0  0
    2.9501    0.8149    1.0332 C   0  0  0  0  0  0  0  0  0  0  0  0
   -3.5982   -2.9134    0.9248 H   0  0  0  0  0  0  0  0  0  0  0  0
   -3.0742   -2.4099   -0.7174 H   0  0  0  0  0  0  0  0  0  0  0  0
   -1.9469   -3.3415    0.3403 H   0  0  0  0  0  0  0  0  0  0  0  0
   -1.8050   -0.5955    2.8245 H   0  0  0  0  0  0  0  0  0  0  0  0
   -3.3625   -1.4600    2.6399 H   0  0  0  0  0  0  0  0  0  0  0  0
   -1.6823    1.9442    1.8717 H   0  0  0  0  0  0  0  0  0  0  0  0
   -2.0405   -0.1834   -2.9029 H   0  0  0  0  0  0  0  0  0  0  0  0
   -2.3599    1.3364   -1.9696 H   0  0  0  0  0  0  0  0  0  0  0  0
   -3.1476   -0.1972   -1.4762 H   0  0  0  0  0  0  0  0  0  0  0  0
    1.5364    1.7766   -2.1538 H   0  0  0  0  0  0  0  0  0  0  0  0
   -0.1254    1.7628   -2.8113 H   0  0  0  0  0  0  0  0  0  0  0  0
    0.9983    0.4066   -3.2137 H   0  0  0  0  0  0  0  0  0  0  0  0
    2.9029   -0.7109   -2.0151 H   0  0  0  0  0  0  0  0  0  0  0  0
    5.3347   -0.3295   -1.8049 H   0  0  0  0  0  0  0  0  0  0  0  0
    6.2533    0.7715    0.2178 H   0  0  0  0  0  0  0  0  0  0  0  0
    4.7304    1.4977    2.0346 H   0  0  0  0  0  0  0  0  0  0  0  0
    2.2929    1.1401    1.8298 H   0  0  0  0  0  0  0  0  0  0  0  0
  1  2  1  0
  2  3  1  0
  3  4  1  0
  4  5  1  0
  4  6  2  0
  4  7  2  0
  2  8  1  0
  8  9  2  0
  9 10  1  0
  9 11  1  0
 11 12  1  0
 11 13  1  0
 13 14  1  0
 14 15  2  0
 13 16  1  0
 16 17  2  0
 17 18  1  0
 18 19  2  0
 19 20  1  0
 20 21  2  0
 14  8  1  0
 21 16  1  0
  1 22  1  0
  1 23  1  0
  1 24  1  0
  3 25  1  0
  3 26  1  0
  5 27  1  0
 10 28  1  0
 10 29  1  0
 10 30  1  0
 12 31  1  0
 12 32  1  0
 12 33  1  0
 17 34  1  0
 18 35  1  0
 19 36  1  0
 20 37  1  0
 21 38  1  0
M  END
$$$$
