
     RDKit          3D

 46 47  0  0  0  0  0  0  0  0999 V2000
   -2.0787    2.8687    1.9322 C   0  0  0  0  0  0  0  0  0  0  0  0
   -2.8481    1.5911    1.7406 C   0  0  0  0  0  0  0  0  0  0  0  0
   -2.4578    0.6650    0.7689 C   0  0  0  0  0  0  0  0  0  0  0  0
   -3.1580   -0.4954    0.5801 N   0  0  0  0  0  0  0  0  0  0  0  0
   -2.7226   -1.4448   -0.4665 C   0  0  1  0  0  0  0  0  0  0  0  0
   -3.1649   -0.9659   -1.8508 C   0  0  0  0  0  0  0  0  0  0  0  0
   -1.8725   -0.6959   -2.5708 C   0  0  2  0  0  0  0  0  0  0  0  0
   -1.9483   -1.1211   -3.9062 O   0  0  0  0  0  0  0  0  0  0  0  0
   -0.8698   -1.5249   -1.7757 C   0  0  1  0  0  0  0  0  0  0  0  0
    0.5490   -0.9464   -1.8274 C   0  0  0  0  0  0  0  0  0  0  0  0
    0.5701    0.3232   -1.2169 O   0  0  0  0  0  0  0  0  0  0  0  0
    2.1599    0.9340   -1.2852 P   0  0  0  0  0  5  0  0  0  0  0  0
    2.1887    2.4136   -0.4625 O   0  0  0  0  0  0  0  0  0  0  0  0
    2.5457    1.1641   -2.7302 O   0  0  0  0  0  0  0  0  0  0  0  0
    3.2256   -0.1843   -0.5642 O   0  0  0  0  0  0  0  0  0  0  0  0
    4.7437    0.5693   -0.3769 P   0  0  0  0  0  5  0  0  0  0  0  0
    4.6699    1.7758    0.8117 O   0  0  0  0  0  0  0  0  0  0  0  0
    5.1806    1.2002   -1.6807 O   0  0  0  0  0  0  0  0  0  0  0  0
    5.9034   -0.6059    0.0389 O   0  0  0  0  0  0  0  0  0  0  0  0
    5.5504   -1.1590    1.6100 P   0  0  0  0  0  5  0  0  0  0  0  0
    5.8982    0.0483    2.7443 O   0  0  0  0  0  0  0  0  0  0  0  0
    3.9250   -1.6137    1.7514 O   0  0  0  0  0  0  0  0  0  0  0  0
    6.4181   -2.3616    1.9038 O   0  0  0  0  0  0  0  0  0  0  0  0
   -1.3162   -1.5874   -0.4422 O   0  0  0  0  0  0  0  0  0  0  0  0
   -4.2910   -0.7275    1.3198 C   0  0  0  0  0  0  0  0  0  0  0  0
   -4.9776   -1.7701    1.1350 O   0  0  0  0  0  0  0  0  0  0  0  0
   -4.6932    0.1702    2.2606 N   0  0  0  0  0  0  0  0  0  0  0  0
   -4.0010    1.3173    2.4846 C   0  0  0  0  0  0  0  0  0  0  0  0
   -4.4064    2.1309    3.3588 O   0  0  0  0  0  0  0  0  0  0  0  0
   -1.9166    3.0586    3.0143 H   0  0  0  0  0  0  0  0  0  0  0  0
   -1.0832    2.8185    1.4411 H   0  0  0  0  0  0  0  0  0  0  0  0
   -2.6502    3.7141    1.4952 H   0  0  0  0  0  0  0  0  0  0  0  0
   -1.5896    0.8807    0.1597 H   0  0  0  0  0  0  0  0  0  0  0  0
   -3.1526   -2.4543   -0.2812 H   0  0  0  0  0  0  0  0  0  0  0  0
   -3.7408   -1.7716   -2.3594 H   0  0  0  0  0  0  0  0  0  0  0  0
   -3.7955   -0.0502   -1.8064 H   0  0  0  0  0  0  0  0  0  0  0  0
   -1.6457    0.3950   -2.5132 H   0  0  0  0  0  0  0  0  0  0  0  0
   -1.1631   -0.7303   -4.3706 H   0  0  0  0  0  0  0  0  0  0  0  0
   -0.8394   -2.5622   -2.1823 H   0  0  0  0  0  0  0  0  0  0  0  0
    1.2200   -1.6518   -1.2870 H   0  0  0  0  0  0  0  0  0  0  0  0
    0.8689   -0.8837   -2.8922 H   0  0  0  0  0  0  0  0  0  0  0  0
    1.7140    2.2372    0.3887 H   0  0  0  0  0  0  0  0  0  0  0  0
    3.9711    1.4722    1.4445 H   0  0  0  0  0  0  0  0  0  0  0  0
    6.8225    0.3346    2.5330 H   0  0  0  0  0  0  0  0  0  0  0  0
    3.8150   -2.3636    1.1136 H   0  0  0  0  0  0  0  0  0  0  0  0
   -5.5570   -0.0234    2.8179 H   0  0  0  0  0  0  0  0  0  0  0  0
  1  2  1  0
  2  3  2  0
  3  4  1  0
  4  5  1  0
  5  6  1  0
  6  7  1  0
  7  8  1  0
  7  9  1  0
  9 10  1  0
 10 11  1  0
 11 12  1  0
 12 13  1  0
 12 14  2  0
 12 15  1  0
 15 16  1  0
 16 17  1  0
 16 18  2  0
 16 19  1  0
 19 20  1  0
 20 21  1  0
 20 22  1  0
 20 23  2  0
  9 24  1  0
  4 25  1  0
 25 26  2  0
 25 27  1  0
 27 28  1  0
 28 29  2  0
 28  2  1  0
 24  5  1  0
  1 30  1  0
  1 31  1  0
  1 32  1  0
  3 33  1  0
  5 34  1  1
  6 35  1  0
  6 36  1  0
  7 37  1  6
  8 38  1  0
  9 39  1  6
 10 40  1  0
 10 41  1  0
 13 42  1  0
 17 43  1  0
 21 44  1  0
 22 45  1  0
 27 46  1  0
M  END
$$$$
