
     RDKit          3D

 53 56  0  0  0  0  0  0  0  0999 V2000
   -4.0692    1.7504    0.3456 C   0  0  0  0  0  0  0  0  0  0  0  0
   -4.6248    0.4503   -0.0629 N   0  0  0  0  0  0  0  0  0  0  0  0
   -5.8674    0.6154   -0.8308 C   0  0  0  0  0  0  0  0  0  0  0  0
   -5.8688   -0.4474   -1.9084 C   0  0  0  0  0  0  0  0  0  0  0  0
   -4.4053   -0.6551   -2.2118 C   0  0  0  0  0  0  0  0  0  0  0  0
   -3.6833   -0.3182   -0.9038 C   0  0  2  0  0  0  0  0  0  0  0  0
   -3.2606   -1.6002   -0.1637 C   0  0  0  0  0  0  0  0  0  0  0  0
   -2.5275   -1.2800    1.1059 C   0  0  0  0  0  0  0  0  0  0  0  0
   -3.0657   -1.2484    2.3888 C   0  0  0  0  0  0  0  0  0  0  0  0
   -2.1354   -0.8365    3.2800 N   0  0  0  0  0  0  0  0  0  0  0  0
   -1.0201   -0.5964    2.5687 C   0  0  0  0  0  0  0  0  0  0  0  0
   -1.2218   -0.8508    1.2375 C   0  0  0  0  0  0  0  0  0  0  0  0
   -0.2186   -0.6535    0.2898 C   0  0  0  0  0  0  0  0  0  0  0  0
    1.0326   -0.1759    0.7380 C   0  0  0  0  0  0  0  0  0  0  0  0
    2.1584    0.0176   -0.2402 C   0  0  0  0  0  0  0  0  0  0  0  0
    2.9701   -1.2712   -0.3834 C   0  0  0  0  0  0  0  0  0  0  0  0
    4.3046   -1.0599   -1.5503 S   0  0  0  0  0  6  0  0  0  0  0  0
    3.7436   -0.7067   -2.8997 O   0  0  0  0  0  0  0  0  0  0  0  0
    5.0691   -2.3480   -1.6719 O   0  0  0  0  0  0  0  0  0  0  0  0
    5.3906    0.2106   -0.9953 C   0  0  0  0  0  0  0  0  0  0  0  0
    5.3161    1.5006   -1.5417 C   0  0  0  0  0  0  0  0  0  0  0  0
    6.1679    2.5088   -1.0794 C   0  0  0  0  0  0  0  0  0  0  0  0
    7.0934    2.2349   -0.0682 C   0  0  0  0  0  0  0  0  0  0  0  0
    7.1663    0.9527    0.4839 C   0  0  0  0  0  0  0  0  0  0  0  0
    6.3156   -0.0574    0.0237 C   0  0  0  0  0  0  0  0  0  0  0  0
    1.2401    0.0694    2.1197 C   0  0  0  0  0  0  0  0  0  0  0  0
    0.2035   -0.1348    3.0480 C   0  0  0  0  0  0  0  0  0  0  0  0
   -3.8020    2.3713   -0.5386 H   0  0  0  0  0  0  0  0  0  0  0  0
   -4.8092    2.2995    0.9664 H   0  0  0  0  0  0  0  0  0  0  0  0
   -3.1600    1.5959    0.9647 H   0  0  0  0  0  0  0  0  0  0  0  0
   -6.7446    0.4904   -0.1607 H   0  0  0  0  0  0  0  0  0  0  0  0
   -5.9284    1.6165   -1.3184 H   0  0  0  0  0  0  0  0  0  0  0  0
   -6.3069   -1.3886   -1.5086 H   0  0  0  0  0  0  0  0  0  0  0  0
   -6.4344   -0.1227   -2.8087 H   0  0  0  0  0  0  0  0  0  0  0  0
   -4.2114   -1.6892   -2.5730 H   0  0  0  0  0  0  0  0  0  0  0  0
   -4.0915    0.0611   -3.0036 H   0  0  0  0  0  0  0  0  0  0  0  0
   -2.7636    0.2630   -1.1526 H   0  0  0  0  0  0  0  0  0  0  0  0
   -2.5952   -2.2078   -0.8146 H   0  0  0  0  0  0  0  0  0  0  0  0
   -4.1571   -2.2147    0.0722 H   0  0  0  0  0  0  0  0  0  0  0  0
   -4.0857   -1.4969    2.6516 H   0  0  0  0  0  0  0  0  0  0  0  0
   -2.2663   -0.7149    4.3088 H   0  0  0  0  0  0  0  0  0  0  0  0
   -0.3965   -0.8626   -0.7577 H   0  0  0  0  0  0  0  0  0  0  0  0
    1.7495    0.3159   -1.2303 H   0  0  0  0  0  0  0  0  0  0  0  0
    2.8180    0.8417    0.1088 H   0  0  0  0  0  0  0  0  0  0  0  0
    2.3137   -2.0941   -0.7394 H   0  0  0  0  0  0  0  0  0  0  0  0
    3.4002   -1.5583    0.6003 H   0  0  0  0  0  0  0  0  0  0  0  0
    4.5975    1.7286   -2.3182 H   0  0  0  0  0  0  0  0  0  0  0  0
    6.1085    3.5031   -1.5029 H   0  0  0  0  0  0  0  0  0  0  0  0
    7.7514    3.0163    0.2895 H   0  0  0  0  0  0  0  0  0  0  0  0
    7.8800    0.7422    1.2699 H   0  0  0  0  0  0  0  0  0  0  0  0
    6.3747   -1.0451    0.4632 H   0  0  0  0  0  0  0  0  0  0  0  0
    2.2025    0.4189    2.4723 H   0  0  0  0  0  0  0  0  0  0  0  0
    0.3537    0.0607    4.1019 H   0  0  0  0  0  0  0  0  0  0  0  0
  1  2  1  0
  2  3  1  0
  3  4  1  0
  4  5  1  0
  5  6  1  0
  6  7  1  0
  7  8  1  0
  8  9  2  0
  9 10  1  0
 10 11  1  0
 11 12  2  0
 12 13  1  0
 13 14  2  0
 14 15  1  0
 15 16  1  0
 16 17  1  0
 17 18  2  0
 17 19  2  0
 17 20  1  0
 20 21  2  0
 21 22  1  0
 22 23  2  0
 23 24  1  0
 24 25  2  0
 14 26  1  0
 26 27  2  0
  6  2  1  0
 12  8  1  0
 25 20  1  0
 27 11  1  0
  1 28  1  0
  1 29  1  0
  1 30  1  0
  3 31  1  0
  3 32  1  0
  4 33  1  0
  4 34  1  0
  5 35  1  0
  5 36  1  0
  6 37  1  6
  7 38  1  0
  7 39  1  0
  9 40  1  0
 10 41  1  0
 13 42  1  0
 15 43  1  0
 15 44  1  0
 16 45  1  0
 16 46  1  0
 21 47  1  0
 22 48  1  0
 23 49  1  0
 24 50  1  0
 25 51  1  0
 26 52  1  0
 27 53  1  0
M  END
$$$$
