
     RDKit          3D

 48 51  0  0  0  0  0  0  0  0999 V2000
    4.1038   -2.8552   -0.9737 C   0  0  0  0  0  0  0  0  0  0  0  0
    2.8465   -3.4435   -1.2913 O   0  0  0  0  0  0  0  0  0  0  0  0
    1.5948   -2.8665   -1.0146 C   0  0  0  0  0  0  0  0  0  0  0  0
    0.4261   -3.5566   -1.3869 C   0  0  0  0  0  0  0  0  0  0  0  0
   -0.8248   -3.0334   -1.0346 C   0  0  0  0  0  0  0  0  0  0  0  0
   -0.9388   -1.8138   -0.3538 C   0  0  0  0  0  0  0  0  0  0  0  0
   -2.3348   -1.2998   -0.0630 C   0  0  0  0  0  0  0  0  0  0  0  0
   -2.3680   -0.1130    0.9043 C   0  0  0  0  0  0  0  0  0  0  0  0
   -1.2748    0.8909    0.5277 C   0  0  1  0  0  0  0  0  0  0  0  0
   -1.3318    2.1632    1.3822 C   0  0  2  0  0  0  0  0  0  0  0  0
   -2.6104    2.9804    1.5374 C   0  0  0  0  0  0  0  0  0  0  0  0
   -2.0336    4.2923    1.9901 C   0  0  0  0  0  0  0  0  0  0  0  0
   -0.7243    4.3737    1.7283 C   0  0  0  0  0  0  0  0  0  0  0  0
   -0.2877    3.1905    0.9217 C   0  0  2  0  0  0  0  0  0  0  0  0
   -0.3827    3.6092   -0.5741 C   0  0  0  0  0  0  0  0  0  0  0  0
    1.1025    2.6121    1.2361 C   0  0  0  0  0  0  0  0  0  0  0  0
    1.2986    1.2353    0.5377 C   0  0  0  0  0  0  0  0  0  0  0  0
    0.1185    0.2276    0.7614 C   0  0  2  0  0  0  0  0  0  0  0  0
    0.2285   -1.0680   -0.0447 C   0  0  0  0  0  0  0  0  0  0  0  0
    1.4849   -1.6318   -0.3472 C   0  0  0  0  0  0  0  0  0  0  0  0
    0.4859   -4.8435   -2.1186 C   0  0  0  0  0  0  0  0  0  0  0  0
    1.4445   -5.0622   -3.1559 N   0  0  0  0  0  0  0  0  0  0  0  0
   -0.3441   -5.7530   -1.8487 O   0  0  0  0  0  0  0  0  0  0  0  0
    4.1977   -2.7235    0.1249 H   0  0  0  0  0  0  0  0  0  0  0  0
    4.9153   -3.5273   -1.3202 H   0  0  0  0  0  0  0  0  0  0  0  0
    4.2092   -1.8771   -1.4890 H   0  0  0  0  0  0  0  0  0  0  0  0
   -1.7254   -3.5719   -1.3085 H   0  0  0  0  0  0  0  0  0  0  0  0
   -2.9555   -2.1189    0.3613 H   0  0  0  0  0  0  0  0  0  0  0  0
   -2.7974   -0.9900   -1.0256 H   0  0  0  0  0  0  0  0  0  0  0  0
   -3.3690    0.3662    0.8430 H   0  0  0  0  0  0  0  0  0  0  0  0
   -2.2230   -0.4726    1.9473 H   0  0  0  0  0  0  0  0  0  0  0  0
   -1.4089    1.1460   -0.5452 H   0  0  0  0  0  0  0  0  0  0  0  0
   -1.0826    1.8434    2.4268 H   0  0  0  0  0  0  0  0  0  0  0  0
   -3.2812    2.5502    2.3117 H   0  0  0  0  0  0  0  0  0  0  0  0
   -3.1460    3.0974    0.5712 H   0  0  0  0  0  0  0  0  0  0  0  0
   -2.6040    5.0846    2.4629 H   0  0  0  0  0  0  0  0  0  0  0  0
   -0.1197    5.2525    1.9282 H   0  0  0  0  0  0  0  0  0  0  0  0
   -1.4083    3.9423   -0.8400 H   0  0  0  0  0  0  0  0  0  0  0  0
   -0.1058    2.7966   -1.2721 H   0  0  0  0  0  0  0  0  0  0  0  0
    0.3094    4.4564   -0.7708 H   0  0  0  0  0  0  0  0  0  0  0  0
    1.2197    2.4824    2.3352 H   0  0  0  0  0  0  0  0  0  0  0  0
    1.8953    3.3155    0.9004 H   0  0  0  0  0  0  0  0  0  0  0  0
    1.4679    1.3795   -0.5499 H   0  0  0  0  0  0  0  0  0  0  0  0
    2.2336    0.8089    0.9569 H   0  0  0  0  0  0  0  0  0  0  0  0
    0.1779   -0.0778    1.8310 H   0  0  0  0  0  0  0  0  0  0  0  0
    2.3863   -1.1235   -0.0503 H   0  0  0  0  0  0  0  0  0  0  0  0
    1.5045   -5.9931   -3.6249 H   0  0  0  0  0  0  0  0  0  0  0  0
    2.0311   -4.2811   -3.5239 H   0  0  0  0  0  0  0  0  0  0  0  0
  1  2  1  0
  2  3  1  0
  3  4  2  0
  4  5  1  0
  5  6  2  0
  6  7  1  0
  7  8  1  0
  8  9  1  0
  9 10  1  0
 10 11  1  0
 11 12  1  0
 12 13  2  0
 13 14  1  0
 14 15  1  6
 14 16  1  0
 16 17  1  0
 17 18  1  0
 18 19  1  0
 19 20  2  0
  4 21  1  0
 21 22  1  0
 21 23  2  0
 20  3  1  0
 19  6  1  0
 18  9  1  0
 14 10  1  0
  1 24  1  0
  1 25  1  0
  1 26  1  0
  5 27  1  0
  7 28  1  0
  7 29  1  0
  8 30  1  0
  8 31  1  0
  9 32  1  6
 10 33  1  1
 11 34  1  0
 11 35  1  0
 12 36  1  0
 13 37  1  0
 15 38  1  0
 15 39  1  0
 15 40  1  0
 16 41  1  0
 16 42  1  0
 17 43  1  0
 17 44  1  0
 18 45  1  1
 20 46  1  0
 22 47  1  0
 22 48  1  0
M  END
$$$$
