
     RDKit          3D

 25 27  0  0  0  0  0  0  0  0999 V2000
    4.7302    1.1955   -0.4808 N   0  0  0  0  0  0  0  0  0  0  0  0
    5.1991   -0.0409   -0.2350 C   0  0  0  0  0  0  0  0  0  0  0  0
    4.1321   -0.8781    0.0116 C   0  0  0  0  0  0  0  0  0  0  0  0
    3.0250   -0.0600   -0.1049 C   0  0  0  0  0  0  0  0  0  0  0  0
    3.4094    1.1958   -0.4044 N   0  0  0  0  0  0  0  0  0  0  0  0
    1.6292   -0.4757    0.0678 C   0  0  0  0  0  0  0  0  0  0  0  0
    0.5156    0.3283   -0.0453 C   0  0  0  0  0  0  0  0  0  0  0  0
   -0.5376   -0.5356    0.2065 C   0  0  0  0  0  0  0  0  0  0  0  0
   -0.0486   -1.7698    0.4506 N   0  0  0  0  0  0  0  0  0  0  0  0
    1.2471   -1.6960    0.3593 O   0  0  0  0  0  0  0  0  0  0  0  0
   -1.9835   -0.2053    0.2173 C   0  0  0  0  0  0  0  0  0  0  0  0
   -2.9308   -1.2092    0.4938 C   0  0  0  0  0  0  0  0  0  0  0  0
   -4.2970   -0.9117    0.5072 C   0  0  0  0  0  0  0  0  0  0  0  0
   -4.7337    0.3883    0.2454 C   0  0  0  0  0  0  0  0  0  0  0  0
   -3.8049    1.3937   -0.0303 C   0  0  0  0  0  0  0  0  0  0  0  0
   -2.4372    1.1023   -0.0452 C   0  0  0  0  0  0  0  0  0  0  0  0
    5.3059    2.0381   -0.7002 H   0  0  0  0  0  0  0  0  0  0  0  0
    6.2459   -0.3144   -0.2352 H   0  0  0  0  0  0  0  0  0  0  0  0
    4.1597   -1.9347    0.2433 H   0  0  0  0  0  0  0  0  0  0  0  0
    0.4890    1.3843   -0.2769 H   0  0  0  0  0  0  0  0  0  0  0  0
   -2.6171   -2.2248    0.6999 H   0  0  0  0  0  0  0  0  0  0  0  0
   -5.0177   -1.6905    0.7209 H   0  0  0  0  0  0  0  0  0  0  0  0
   -5.7917    0.6167    0.2563 H   0  0  0  0  0  0  0  0  0  0  0  0
   -4.1449    2.4012   -0.2331 H   0  0  0  0  0  0  0  0  0  0  0  0
   -1.7436    1.9026   -0.2620 H   0  0  0  0  0  0  0  0  0  0  0  0
  1  2  1  0
  2  3  2  0
  3  4  1  0
  4  5  2  0
  4  6  1  0
  6  7  2  0
  7  8  1  0
  8  9  2  0
  9 10  1  0
  8 11  1  0
 11 12  2  0
 12 13  1  0
 13 14  2  0
 14 15  1  0
 15 16  2  0
  5  1  1  0
 10  6  1  0
 16 11  1  0
  1 17  1  0
  2 18  1  0
  3 19  1  0
  7 20  1  0
 12 21  1  0
 13 22  1  0
 14 23  1  0
 15 24  1  0
 16 25  1  0
M  END
$$$$
