
     RDKit          3D

 72 73  0  0  0  0  0  0  0  0999 V2000
    5.3238    4.1651    0.5732 C   0  0  0  0  0  0  0  0  0  0  0  0
    6.4357    3.1812    0.9192 C   0  0  0  0  0  0  0  0  0  0  0  0
    6.1081    1.8723    0.4584 O   0  0  0  0  0  0  0  0  0  0  0  0
    6.1716    1.4907   -0.8875 C   0  0  0  0  0  0  0  0  0  0  0  0
    6.6387    2.2761   -1.7571 O   0  0  0  0  0  0  0  0  0  0  0  0
    5.6888    0.1292   -1.2954 C   0  0  1  0  0  0  0  0  0  0  0  0
    6.5771   -0.8840   -0.7206 N   0  0  0  0  0  0  0  0  0  0  0  0
    4.2223   -0.0621   -0.8494 C   0  0  0  0  0  0  0  0  0  0  0  0
    3.5842   -1.3259   -1.4418 C   0  0  0  0  0  0  0  0  0  0  0  0
    2.1369   -1.3947   -1.0591 C   0  0  0  0  0  0  0  0  0  0  0  0
    1.7719   -2.1738   -0.1370 O   0  0  0  0  0  0  0  0  0  0  0  0
    1.1873   -0.5279   -1.6942 N   0  0  0  0  0  0  0  0  0  0  0  0
   -0.1412   -0.2882   -1.1270 C   0  0  1  0  0  0  0  0  0  0  0  0
   -0.6696    1.0846   -1.5810 C   0  0  0  0  0  0  0  0  0  0  0  0
   -2.3427    1.4785   -0.9304 S   0  0  0  0  0  0  0  0  0  0  0  0
   -1.9449    1.6100    0.8550 C   0  0  0  0  0  0  0  0  0  0  0  0
   -0.8479    2.6052    1.1235 C   0  0  0  0  0  0  0  0  0  0  0  0
   -1.0424    3.9663    0.8355 C   0  0  0  0  0  0  0  0  0  0  0  0
   -0.0140    4.8875    1.0583 C   0  0  0  0  0  0  0  0  0  0  0  0
    1.2125    4.4579    1.5728 C   0  0  0  0  0  0  0  0  0  0  0  0
    1.4110    3.1070    1.8700 C   0  0  0  0  0  0  0  0  0  0  0  0
    0.3856    2.1829    1.6493 C   0  0  0  0  0  0  0  0  0  0  0  0
   -1.0780   -1.3910   -1.5377 C   0  0  0  0  0  0  0  0  0  0  0  0
   -1.2834   -1.6125   -2.7624 O   0  0  0  0  0  0  0  0  0  0  0  0
   -1.7590   -2.1643   -0.5393 N   0  0  0  0  0  0  0  0  0  0  0  0
   -3.0298   -2.8359   -0.8229 C   0  0  1  0  0  0  0  0  0  0  0  0
   -3.2459   -3.9936    0.1166 C   0  0  0  0  0  0  0  0  0  0  0  0
   -2.2544   -4.6088    0.5976 O   0  0  0  0  0  0  0  0  0  0  0  0
   -4.5489   -4.4299    0.3883 O   0  0  0  0  0  0  0  0  0  0  0  0
   -4.8532   -5.4507    1.3357 C   0  0  0  0  0  0  0  0  0  0  0  0
   -4.7114   -4.9194    2.7573 C   0  0  0  0  0  0  0  0  0  0  0  0
   -4.1527   -1.8278   -0.7133 C   0  0  0  0  0  0  0  0  0  0  0  0
   -4.9039   -1.4752   -1.8477 C   0  0  0  0  0  0  0  0  0  0  0  0
   -5.9119   -0.5105   -1.7546 C   0  0  0  0  0  0  0  0  0  0  0  0
   -6.1754    0.1132   -0.5323 C   0  0  0  0  0  0  0  0  0  0  0  0
   -5.4314   -0.2264    0.6002 C   0  0  0  0  0  0  0  0  0  0  0  0
   -4.4233   -1.1903    0.5127 C   0  0  0  0  0  0  0  0  0  0  0  0
    5.2158    4.2562   -0.5277 H   0  0  0  0  0  0  0  0  0  0  0  0
    5.5650    5.1646    0.9922 H   0  0  0  0  0  0  0  0  0  0  0  0
    4.3625    3.8164    1.0045 H   0  0  0  0  0  0  0  0  0  0  0  0
    7.4001    3.5173    0.4801 H   0  0  0  0  0  0  0  0  0  0  0  0
    6.5519    3.1483    2.0229 H   0  0  0  0  0  0  0  0  0  0  0  0
    5.7368    0.0598   -2.4061 H   0  0  0  0  0  0  0  0  0  0  0  0
    6.3953   -1.8029   -1.1843 H   0  0  0  0  0  0  0  0  0  0  0  0
    6.3774   -0.9946    0.3006 H   0  0  0  0  0  0  0  0  0  0  0  0
    3.6334    0.8217   -1.1847 H   0  0  0  0  0  0  0  0  0  0  0  0
    4.1627   -0.1022    0.2613 H   0  0  0  0  0  0  0  0  0  0  0  0
    3.6661   -1.3103   -2.5500 H   0  0  0  0  0  0  0  0  0  0  0  0
    4.1061   -2.2317   -1.0661 H   0  0  0  0  0  0  0  0  0  0  0  0
    1.4946    0.0131   -2.5349 H   0  0  0  0  0  0  0  0  0  0  0  0
   -0.0451   -0.2687   -0.0235 H   0  0  0  0  0  0  0  0  0  0  0  0
   -0.7321    1.1056   -2.6902 H   0  0  0  0  0  0  0  0  0  0  0  0
    0.0465    1.8799   -1.2870 H   0  0  0  0  0  0  0  0  0  0  0  0
   -1.6985    0.6067    1.2594 H   0  0  0  0  0  0  0  0  0  0  0  0
   -2.8629    1.9426    1.3836 H   0  0  0  0  0  0  0  0  0  0  0  0
   -1.9867    4.3106    0.4320 H   0  0  0  0  0  0  0  0  0  0  0  0
   -0.1672    5.9343    0.8300 H   0  0  0  0  0  0  0  0  0  0  0  0
    2.0082    5.1717    1.7429 H   0  0  0  0  0  0  0  0  0  0  0  0
    2.3594    2.7750    2.2719 H   0  0  0  0  0  0  0  0  0  0  0  0
    0.5570    1.1404    1.8855 H   0  0  0  0  0  0  0  0  0  0  0  0
   -1.4836   -2.0298    0.4606 H   0  0  0  0  0  0  0  0  0  0  0  0
   -2.9971   -3.2674   -1.8474 H   0  0  0  0  0  0  0  0  0  0  0  0
   -4.1919   -6.3312    1.1838 H   0  0  0  0  0  0  0  0  0  0  0  0
   -5.9030   -5.7765    1.1794 H   0  0  0  0  0  0  0  0  0  0  0  0
   -5.3677   -4.0345    2.8977 H   0  0  0  0  0  0  0  0  0  0  0  0
   -5.0074   -5.7070    3.4819 H   0  0  0  0  0  0  0  0  0  0  0  0
   -3.6594   -4.6271    2.9577 H   0  0  0  0  0  0  0  0  0  0  0  0
   -4.7063   -1.9403   -2.8053 H   0  0  0  0  0  0  0  0  0  0  0  0
   -6.4863   -0.2429   -2.6321 H   0  0  0  0  0  0  0  0  0  0  0  0
   -6.9539    0.8619   -0.4636 H   0  0  0  0  0  0  0  0  0  0  0  0
   -5.6319    0.2615    1.5452 H   0  0  0  0  0  0  0  0  0  0  0  0
   -3.8481   -1.4355    1.3969 H   0  0  0  0  0  0  0  0  0  0  0  0
  1  2  1  0
  2  3  1  0
  3  4  1  0
  4  5  2  0
  4  6  1  0
  6  7  1  0
  6  8  1  0
  8  9  1  0
  9 10  1  0
 10 11  2  0
 10 12  1  0
 12 13  1  0
 13 14  1  0
 14 15  1  0
 15 16  1  0
 16 17  1  0
 17 18  2  0
 18 19  1  0
 19 20  2  0
 20 21  1  0
 21 22  2  0
 13 23  1  0
 23 24  2  0
 23 25  1  0
 25 26  1  0
 26 27  1  0
 27 28  2  0
 27 29  1  0
 29 30  1  0
 30 31  1  0
 26 32  1  0
 32 33  2  0
 33 34  1  0
 34 35  2  0
 35 36  1  0
 36 37  2  0
 22 17  1  0
 37 32  1  0
  1 38  1  0
  1 39  1  0
  1 40  1  0
  2 41  1  0
  2 42  1  0
  6 43  1  6
  7 44  1  0
  7 45  1  0
  8 46  1  0
  8 47  1  0
  9 48  1  0
  9 49  1  0
 12 50  1  0
 13 51  1  1
 14 52  1  0
 14 53  1  0
 16 54  1  0
 16 55  1  0
 18 56  1  0
 19 57  1  0
 20 58  1  0
 21 59  1  0
 22 60  1  0
 25 61  1  0
 26 62  1  6
 30 63  1  0
 30 64  1  0
 31 65  1  0
 31 66  1  0
 31 67  1  0
 33 68  1  0
 34 69  1  0
 35 70  1  0
 36 71  1  0
 37 72  1  0
M  END
$$$$
