
     RDKit          3D

 48 49  0  0  0  0  0  0  0  0999 V2000
   -7.2418    1.5630    1.8542 C   0  0  0  0  0  0  0  0  0  0  0  0
   -6.9369    0.1195    1.4551 C   0  0  0  0  0  0  0  0  0  0  0  0
   -5.7929    0.0136    0.4350 C   0  0  0  0  0  0  0  0  0  0  0  0
   -4.4240    0.3478    1.0466 C   0  0  0  0  0  0  0  0  0  0  0  0
   -3.2972    0.1133    0.0329 C   0  0  0  0  0  0  0  0  0  0  0  0
   -1.9286    0.4500    0.6448 C   0  0  0  0  0  0  0  0  0  0  0  0
   -0.7809    0.3408   -0.3722 C   0  0  0  0  0  0  0  0  0  0  0  0
   -0.3943   -1.1180   -0.6711 C   0  0  0  0  0  0  0  0  0  0  0  0
    0.6808   -1.2422   -1.7667 C   0  0  0  0  0  0  0  0  0  0  0  0
    2.0235   -0.5610   -1.4462 C   0  0  0  0  0  0  0  0  0  0  0  0
    2.7052   -1.1340   -0.1958 C   0  0  0  0  0  0  0  0  0  0  0  0
    4.0857   -0.5396   -0.0258 C   0  0  0  0  0  0  0  0  0  0  0  0
    4.2508    0.6447    0.6227 C   0  0  0  0  0  0  0  0  0  0  0  0
    3.1417    1.3058    1.1547 O   0  0  0  0  0  0  0  0  0  0  0  0
    5.6023    1.2498    0.7697 C   0  0  0  0  0  0  0  0  0  0  0  0
    5.7656    2.3394    1.3801 O   0  0  0  0  0  0  0  0  0  0  0  0
    6.7441    0.5476    0.1832 C   0  0  0  0  0  0  0  0  0  0  0  0
    6.5928   -0.6398   -0.4938 C   0  0  0  0  0  0  0  0  0  0  0  0
    7.7385   -1.1750   -0.9904 N   0  0  0  0  0  0  0  0  0  0  0  0
    8.8106   -0.3990   -0.7007 C   0  0  0  0  0  0  0  0  0  0  0  0
    8.3674    0.9753    0.1797 S   0  0  0  0  0  0  0  0  0  0  0  0
    5.2588   -1.2351   -0.6389 C   0  0  0  0  0  0  0  0  0  0  0  0
    5.1155   -2.3125   -1.2769 O   0  0  0  0  0  0  0  0  0  0  0  0
   -6.4006    1.9975    2.4327 H   0  0  0  0  0  0  0  0  0  0  0  0
   -7.4322    2.1840    0.9531 H   0  0  0  0  0  0  0  0  0  0  0  0
   -8.1482    1.5845    2.4952 H   0  0  0  0  0  0  0  0  0  0  0  0
   -7.8531   -0.3163    1.0007 H   0  0  0  0  0  0  0  0  0  0  0  0
   -6.6971   -0.4757    2.3629 H   0  0  0  0  0  0  0  0  0  0  0  0
   -5.7706   -1.0307    0.0533 H   0  0  0  0  0  0  0  0  0  0  0  0
   -5.9958    0.6838   -0.4291 H   0  0  0  0  0  0  0  0  0  0  0  0
   -4.2518   -0.2917    1.9402 H   0  0  0  0  0  0  0  0  0  0  0  0
   -4.4073    1.4126    1.3632 H   0  0  0  0  0  0  0  0  0  0  0  0
   -3.3164   -0.9506   -0.2843 H   0  0  0  0  0  0  0  0  0  0  0  0
   -3.4704    0.7529   -0.8604 H   0  0  0  0  0  0  0  0  0  0  0  0
   -1.7272   -0.2129    1.5150 H   0  0  0  0  0  0  0  0  0  0  0  0
   -1.9551    1.4969    1.0197 H   0  0  0  0  0  0  0  0  0  0  0  0
   -1.0561    0.8657   -1.3131 H   0  0  0  0  0  0  0  0  0  0  0  0
    0.0969    0.8632    0.0638 H   0  0  0  0  0  0  0  0  0  0  0  0
   -1.2878   -1.6705   -1.0285 H   0  0  0  0  0  0  0  0  0  0  0  0
   -0.0554   -1.6206    0.2592 H   0  0  0  0  0  0  0  0  0  0  0  0
    0.2822   -0.8087   -2.7098 H   0  0  0  0  0  0  0  0  0  0  0  0
    0.8647   -2.3217   -1.9599 H   0  0  0  0  0  0  0  0  0  0  0  0
    2.6947   -0.7135   -2.3200 H   0  0  0  0  0  0  0  0  0  0  0  0
    1.8829    0.5351   -1.3373 H   0  0  0  0  0  0  0  0  0  0  0  0
    2.0935   -0.9254    0.7071 H   0  0  0  0  0  0  0  0  0  0  0  0
    2.7759   -2.2398   -0.2823 H   0  0  0  0  0  0  0  0  0  0  0  0
    3.2280    2.1903    1.6401 H   0  0  0  0  0  0  0  0  0  0  0  0
    9.8197   -0.6427   -1.0035 H   0  0  0  0  0  0  0  0  0  0  0  0
  1  2  1  0
  2  3  1  0
  3  4  1  0
  4  5  1  0
  5  6  1  0
  6  7  1  0
  7  8  1  0
  8  9  1  0
  9 10  1  0
 10 11  1  0
 11 12  1  0
 12 13  2  0
 13 14  1  0
 13 15  1  0
 15 16  2  0
 15 17  1  0
 17 18  2  0
 18 19  1  0
 19 20  2  0
 20 21  1  0
 18 22  1  0
 22 23  2  0
 22 12  1  0
 21 17  1  0
  1 24  1  0
  1 25  1  0
  1 26  1  0
  2 27  1  0
  2 28  1  0
  3 29  1  0
  3 30  1  0
  4 31  1  0
  4 32  1  0
  5 33  1  0
  5 34  1  0
  6 35  1  0
  6 36  1  0
  7 37  1  0
  7 38  1  0
  8 39  1  0
  8 40  1  0
  9 41  1  0
  9 42  1  0
 10 43  1  0
 10 44  1  0
 11 45  1  0
 11 46  1  0
 14 47  1  0
 20 48  1  0
M  END
$$$$
