
     RDKit          3D

 41 43  0  0  0  0  0  0  0  0999 V2000
   -2.0238   -4.2821    0.1535 C   0  0  0  0  0  0  0  0  0  0  0  0
   -1.7603   -2.9275   -0.1972 O   0  0  0  0  0  0  0  0  0  0  0  0
   -0.5360   -2.2744    0.0164 C   0  0  0  0  0  0  0  0  0  0  0  0
   -0.4188   -0.9333   -0.3783 C   0  0  0  0  0  0  0  0  0  0  0  0
   -1.5358   -0.3146   -0.9655 O   0  0  0  0  0  0  0  0  0  0  0  0
   -1.6006    1.0491   -1.3931 C   0  0  0  0  0  0  0  0  0  0  0  0
   -2.8791    1.2642   -2.1849 C   0  0  0  0  0  0  0  0  0  0  0  0
   -3.9476    1.5890   -1.1544 C   0  0  0  0  0  0  0  0  0  0  0  0
   -3.2195    2.1925    0.0430 C   0  0  0  0  0  0  0  0  0  0  0  0
   -1.7256    1.9873   -0.1945 C   0  0  0  0  0  0  0  0  0  0  0  0
    0.7979   -0.2531   -0.1782 C   0  0  0  0  0  0  0  0  0  0  0  0
    1.8942   -0.9001    0.4187 C   0  0  0  0  0  0  0  0  0  0  0  0
    1.7640   -2.2402    0.8099 C   0  0  0  0  0  0  0  0  0  0  0  0
    0.5628   -2.9226    0.6105 C   0  0  0  0  0  0  0  0  0  0  0  0
    3.2015   -0.1619    0.6476 C   0  0  0  0  0  0  0  0  0  0  0  0
    3.8040    0.3671   -0.6811 C   0  0  0  0  0  0  0  0  0  0  0  0
    3.7654    1.8126   -0.5903 N   0  0  0  0  0  0  0  0  0  0  0  0
    3.3306    2.2035    0.6921 C   0  0  0  0  0  0  0  0  0  0  0  0
    3.2425    3.4094    1.0429 O   0  0  0  0  0  0  0  0  0  0  0  0
    3.0114    1.0630    1.5733 C   0  0  0  0  0  0  0  0  0  0  0  0
   -3.0670   -4.5328   -0.1280 H   0  0  0  0  0  0  0  0  0  0  0  0
   -1.9078   -4.4224    1.2490 H   0  0  0  0  0  0  0  0  0  0  0  0
   -1.3352   -4.9594   -0.3945 H   0  0  0  0  0  0  0  0  0  0  0  0
   -0.7212    1.2970   -2.0276 H   0  0  0  0  0  0  0  0  0  0  0  0
   -2.7494    2.1323   -2.8691 H   0  0  0  0  0  0  0  0  0  0  0  0
   -3.1504    0.3687   -2.7858 H   0  0  0  0  0  0  0  0  0  0  0  0
   -4.6988    2.2957   -1.5695 H   0  0  0  0  0  0  0  0  0  0  0  0
   -4.4634    0.6524   -0.8470 H   0  0  0  0  0  0  0  0  0  0  0  0
   -3.4489    3.2771    0.1311 H   0  0  0  0  0  0  0  0  0  0  0  0
   -3.5364    1.6834    0.9797 H   0  0  0  0  0  0  0  0  0  0  0  0
   -1.2505    2.9622   -0.4421 H   0  0  0  0  0  0  0  0  0  0  0  0
   -1.2324    1.5761    0.7126 H   0  0  0  0  0  0  0  0  0  0  0  0
    0.9026    0.7806   -0.4760 H   0  0  0  0  0  0  0  0  0  0  0  0
    2.5931   -2.7613    1.2722 H   0  0  0  0  0  0  0  0  0  0  0  0
    0.4983   -3.9554    0.9244 H   0  0  0  0  0  0  0  0  0  0  0  0
    3.9422   -0.8466    1.1196 H   0  0  0  0  0  0  0  0  0  0  0  0
    3.2377    0.0304   -1.5766 H   0  0  0  0  0  0  0  0  0  0  0  0
    4.8604    0.0371   -0.7829 H   0  0  0  0  0  0  0  0  0  0  0  0
    4.0892    2.4668   -1.3369 H   0  0  0  0  0  0  0  0  0  0  0  0
    3.7335    1.0334    2.4174 H   0  0  0  0  0  0  0  0  0  0  0  0
    1.9771    1.1569    1.9705 H   0  0  0  0  0  0  0  0  0  0  0  0
  1  2  1  0
  2  3  1  0
  3  4  2  0
  4  5  1  0
  5  6  1  0
  6  7  1  0
  7  8  1  0
  8  9  1  0
  9 10  1  0
  4 11  1  0
 11 12  2  0
 12 13  1  0
 13 14  2  0
 12 15  1  0
 15 16  1  0
 16 17  1  0
 17 18  1  0
 18 19  2  0
 18 20  1  0
 14  3  1  0
 20 15  1  0
 10  6  1  0
  1 21  1  0
  1 22  1  0
  1 23  1  0
  6 24  1  0
  7 25  1  0
  7 26  1  0
  8 27  1  0
  8 28  1  0
  9 29  1  0
  9 30  1  0
 10 31  1  0
 10 32  1  0
 11 33  1  0
 13 34  1  0
 14 35  1  0
 15 36  1  0
 16 37  1  0
 16 38  1  0
 17 39  1  0
 20 40  1  0
 20 41  1  0
M  END
$$$$
