
     RDKit          3D

 38 39  0  0  0  0  0  0  0  0999 V2000
    4.4978    0.1301   -0.1927 C   0  0  1  0  0  0  0  0  0  0  0  0
    5.9335    0.3926    0.2837 C   0  0  0  0  0  0  0  0  0  0  0  0
    5.9333    1.0940    1.4773 F   0  0  0  0  0  0  0  0  0  0  0  0
    3.7671   -0.8076    0.7845 C   0  0  0  0  0  0  0  0  0  0  0  0
    2.2949   -0.8945    0.4760 C   0  0  0  0  0  0  0  0  0  0  0  0
    1.5289   -1.9191    1.0514 C   0  0  0  0  0  0  0  0  0  0  0  0
    0.1527   -1.9866    0.8227 C   0  0  0  0  0  0  0  0  0  0  0  0
   -0.4757   -1.0293    0.0173 C   0  0  0  0  0  0  0  0  0  0  0  0
    0.2793    0.0090   -0.5427 C   0  0  0  0  0  0  0  0  0  0  0  0
    1.6598    0.0936   -0.3050 C   0  0  0  0  0  0  0  0  0  0  0  0
    2.4657    1.1793   -0.9754 C   0  0  0  0  0  0  0  0  0  0  0  0
    3.7559    1.3958   -0.3057 N   0  0  0  0  0  0  0  0  0  0  0  0
   -2.2112   -1.1075   -0.2655 S   0  0  0  0  0  6  0  0  0  0  0  0
   -2.5092   -0.6281   -1.6588 O   0  0  0  0  0  0  0  0  0  0  0  0
   -2.6804   -2.5303   -0.1337 O   0  0  0  0  0  0  0  0  0  0  0  0
   -3.0165   -0.1075    0.9090 N   0  0  0  0  0  0  0  0  0  0  0  0
   -4.4597   -0.0415    0.6461 C   0  0  0  0  0  0  0  0  0  0  0  0
   -4.7891    1.2197   -0.1621 C   0  0  0  0  0  0  0  0  0  0  0  0
   -6.2886    1.3509   -0.4400 C   0  0  0  0  0  0  0  0  0  0  0  0
   -6.5196    2.5040   -1.1675 F   0  0  0  0  0  0  0  0  0  0  0  0
   -6.9930    1.4250    0.7487 F   0  0  0  0  0  0  0  0  0  0  0  0
   -6.7372    0.2649   -1.1708 F   0  0  0  0  0  0  0  0  0  0  0  0
    4.5600   -0.3660   -1.1897 H   0  0  0  0  0  0  0  0  0  0  0  0
    6.4812    0.9847   -0.4798 H   0  0  0  0  0  0  0  0  0  0  0  0
    6.4722   -0.5687    0.4252 H   0  0  0  0  0  0  0  0  0  0  0  0
    3.8765   -0.4330    1.8256 H   0  0  0  0  0  0  0  0  0  0  0  0
    4.2224   -1.8208    0.7283 H   0  0  0  0  0  0  0  0  0  0  0  0
    1.9987   -2.6646    1.6813 H   0  0  0  0  0  0  0  0  0  0  0  0
   -0.4215   -2.7835    1.2776 H   0  0  0  0  0  0  0  0  0  0  0  0
   -0.2062    0.7524   -1.1634 H   0  0  0  0  0  0  0  0  0  0  0  0
    1.8922    2.1314   -0.9520 H   0  0  0  0  0  0  0  0  0  0  0  0
    2.6271    0.9040   -2.0419 H   0  0  0  0  0  0  0  0  0  0  0  0
    4.3054    2.0537   -0.9078 H   0  0  0  0  0  0  0  0  0  0  0  0
   -2.8736   -0.5717    1.8356 H   0  0  0  0  0  0  0  0  0  0  0  0
   -4.8264   -0.9508    0.1197 H   0  0  0  0  0  0  0  0  0  0  0  0
   -5.0025    0.0127    1.6165 H   0  0  0  0  0  0  0  0  0  0  0  0
   -4.4463    2.1144    0.4022 H   0  0  0  0  0  0  0  0  0  0  0  0
   -4.2478    1.1990   -1.1310 H   0  0  0  0  0  0  0  0  0  0  0  0
  1  2  1  0
  2  3  1  0
  1  4  1  0
  4  5  1  0
  5  6  2  0
  6  7  1  0
  7  8  2  0
  8  9  1  0
  9 10  2  0
 10 11  1  0
 11 12  1  0
  8 13  1  0
 13 14  2  0
 13 15  2  0
 13 16  1  0
 16 17  1  0
 17 18  1  0
 18 19  1  0
 19 20  1  0
 19 21  1  0
 19 22  1  0
 12  1  1  0
 10  5  1  0
  1 23  1  6
  2 24  1  0
  2 25  1  0
  4 26  1  0
  4 27  1  0
  6 28  1  0
  7 29  1  0
  9 30  1  0
 11 31  1  0
 11 32  1  0
 12 33  1  0
 16 34  1  0
 17 35  1  0
 17 36  1  0
 18 37  1  0
 18 38  1  0
M  END
$$$$
