
     RDKit          3D

 75 76  0  0  0  0  0  0  0  0999 V2000
    3.7173   -0.4636   -2.6868 C   0  0  0  0  0  0  0  0  0  0  0  0
    3.4816   -1.1594   -1.4080 N   0  0  0  0  0  0  0  0  0  0  0  0
    2.1506   -1.0890   -0.8235 C   0  0  0  0  0  0  0  0  0  0  0  0
    1.7284   -2.0267   -0.0955 O   0  0  0  0  0  0  0  0  0  0  0  0
    1.2167    0.0646   -1.1095 C   0  0  0  0  0  0  0  0  0  0  0  0
    0.1815    0.1974   -0.0580 N   0  0  0  0  0  0  0  0  0  0  0  0
    0.7409    0.7542    1.1974 C   0  0  0  0  0  0  0  0  0  0  0  0
    0.1085    0.0721    2.4122 C   0  0  0  0  0  0  0  0  0  0  0  0
   -1.2366    0.4388    2.5395 O   0  0  0  0  0  0  0  0  0  0  0  0
   -0.9555    1.0075   -0.5480 C   0  0  0  0  0  0  0  0  0  0  0  0
   -1.9112    0.1520   -1.3309 C   0  0  0  0  0  0  0  0  0  0  0  0
   -1.8895    0.1871   -2.5901 O   0  0  0  0  0  0  0  0  0  0  0  0
   -2.8277   -0.7304   -0.6549 N   0  0  0  0  0  0  0  0  0  0  0  0
   -2.2544   -1.9084    0.0124 C   0  0  0  0  0  0  0  0  0  0  0  0
   -4.2761   -0.3789   -0.5715 C   0  0  0  0  0  0  0  0  0  0  0  0
   -5.0848   -1.4705    0.1802 C   0  0  0  0  0  0  0  0  0  0  0  0
   -4.8515   -0.2725   -2.0015 C   0  0  0  0  0  0  0  0  0  0  0  0
   -4.4121    0.9832    0.1777 C   0  0  0  0  0  0  0  0  0  0  0  0
   -5.8334    1.4538    0.3961 C   0  0  0  0  0  0  0  0  0  0  0  0
   -6.4899    2.2175   -0.5847 C   0  0  0  0  0  0  0  0  0  0  0  0
   -7.8042    2.6485   -0.3809 C   0  0  0  0  0  0  0  0  0  0  0  0
   -8.4714    2.3265    0.8038 C   0  0  0  0  0  0  0  0  0  0  0  0
   -7.8243    1.5753    1.7883 C   0  0  0  0  0  0  0  0  0  0  0  0
   -6.5099    1.1423    1.5887 C   0  0  0  0  0  0  0  0  0  0  0  0
    4.5972   -1.8693   -0.6991 C   0  0  0  0  0  0  0  0  0  0  0  0
    4.2488   -3.3713   -0.5476 C   0  0  0  0  0  0  0  0  0  0  0  0
    5.9370   -1.8154   -1.4910 C   0  0  0  0  0  0  0  0  0  0  0  0
    4.8170   -1.2534    0.7192 C   0  0  0  0  0  0  0  0  0  0  0  0
    5.4960    0.1002    0.7046 C   0  0  0  0  0  0  0  0  0  0  0  0
    4.7817    1.2608    0.3656 C   0  0  0  0  0  0  0  0  0  0  0  0
    5.4225    2.5027    0.3322 C   0  0  0  0  0  0  0  0  0  0  0  0
    6.7826    2.5975    0.6356 C   0  0  0  0  0  0  0  0  0  0  0  0
    7.5041    1.4496    0.9715 C   0  0  0  0  0  0  0  0  0  0  0  0
    6.8663    0.2058    1.0054 C   0  0  0  0  0  0  0  0  0  0  0  0
    4.2347   -1.1303   -3.4052 H   0  0  0  0  0  0  0  0  0  0  0  0
    2.7721   -0.1743   -3.1871 H   0  0  0  0  0  0  0  0  0  0  0  0
    4.3191    0.4527   -2.5140 H   0  0  0  0  0  0  0  0  0  0  0  0
    0.7362   -0.1503   -2.0882 H   0  0  0  0  0  0  0  0  0  0  0  0
    1.7884    1.0133   -1.2124 H   0  0  0  0  0  0  0  0  0  0  0  0
    0.6089    1.8586    1.2585 H   0  0  0  0  0  0  0  0  0  0  0  0
    1.8327    0.5649    1.2710 H   0  0  0  0  0  0  0  0  0  0  0  0
    0.6614    0.3806    3.3273 H   0  0  0  0  0  0  0  0  0  0  0  0
    0.1944   -1.0325    2.3016 H   0  0  0  0  0  0  0  0  0  0  0  0
   -1.5900   -0.0726    3.3130 H   0  0  0  0  0  0  0  0  0  0  0  0
   -0.6023    1.8606   -1.1714 H   0  0  0  0  0  0  0  0  0  0  0  0
   -1.5251    1.4548    0.2924 H   0  0  0  0  0  0  0  0  0  0  0  0
   -1.1779   -2.0280   -0.2304 H   0  0  0  0  0  0  0  0  0  0  0  0
   -2.3546   -1.8076    1.1128 H   0  0  0  0  0  0  0  0  0  0  0  0
   -2.7569   -2.8333   -0.3353 H   0  0  0  0  0  0  0  0  0  0  0  0
   -4.7425   -1.5648    1.2325 H   0  0  0  0  0  0  0  0  0  0  0  0
   -4.9907   -2.4540   -0.3258 H   0  0  0  0  0  0  0  0  0  0  0  0
   -6.1688   -1.2309    0.1944 H   0  0  0  0  0  0  0  0  0  0  0  0
   -5.9582   -0.1770   -1.9858 H   0  0  0  0  0  0  0  0  0  0  0  0
   -4.5948   -1.1827   -2.5848 H   0  0  0  0  0  0  0  0  0  0  0  0
   -4.4435    0.6131   -2.5324 H   0  0  0  0  0  0  0  0  0  0  0  0
   -3.8694    1.7749   -0.3831 H   0  0  0  0  0  0  0  0  0  0  0  0
   -3.9002    0.9029    1.1623 H   0  0  0  0  0  0  0  0  0  0  0  0
   -5.9844    2.4789   -1.5058 H   0  0  0  0  0  0  0  0  0  0  0  0
   -8.3052    3.2336   -1.1413 H   0  0  0  0  0  0  0  0  0  0  0  0
   -9.4889    2.6610    0.9599 H   0  0  0  0  0  0  0  0  0  0  0  0
   -8.3411    1.3284    2.7066 H   0  0  0  0  0  0  0  0  0  0  0  0
   -6.0213    0.5605    2.3604 H   0  0  0  0  0  0  0  0  0  0  0  0
    3.5142   -3.5529    0.2620 H   0  0  0  0  0  0  0  0  0  0  0  0
    5.1491   -3.9657   -0.2781 H   0  0  0  0  0  0  0  0  0  0  0  0
    3.8425   -3.7710   -1.5016 H   0  0  0  0  0  0  0  0  0  0  0  0
    5.8674   -2.3971   -2.4350 H   0  0  0  0  0  0  0  0  0  0  0  0
    6.7617   -2.2584   -0.8912 H   0  0  0  0  0  0  0  0  0  0  0  0
    6.2291   -0.7736   -1.7387 H   0  0  0  0  0  0  0  0  0  0  0  0
    3.8514   -1.1635    1.2602 H   0  0  0  0  0  0  0  0  0  0  0  0
    5.4292   -1.9543    1.3301 H   0  0  0  0  0  0  0  0  0  0  0  0
    3.7340    1.2079    0.1208 H   0  0  0  0  0  0  0  0  0  0  0  0
    4.8642    3.3917    0.0685 H   0  0  0  0  0  0  0  0  0  0  0  0
    7.2776    3.5596    0.6083 H   0  0  0  0  0  0  0  0  0  0  0  0
    8.5588    1.5228    1.2033 H   0  0  0  0  0  0  0  0  0  0  0  0
    7.4425   -0.6749    1.2602 H   0  0  0  0  0  0  0  0  0  0  0  0
  1  2  1  0
  2  3  1  0
  3  4  2  0
  3  5  1  0
  5  6  1  0
  6  7  1  0
  7  8  1  0
  8  9  1  0
  6 10  1  0
 10 11  1  0
 11 12  2  0
 11 13  1  0
 13 14  1  0
 13 15  1  0
 15 16  1  0
 15 17  1  0
 15 18  1  0
 18 19  1  0
 19 20  2  0
 20 21  1  0
 21 22  2  0
 22 23  1  0
 23 24  2  0
  2 25  1  0
 25 26  1  0
 25 27  1  0
 25 28  1  0
 28 29  1  0
 29 30  2  0
 30 31  1  0
 31 32  2  0
 32 33  1  0
 33 34  2  0
 24 19  1  0
 34 29  1  0
  1 35  1  0
  1 36  1  0
  1 37  1  0
  5 38  1  0
  5 39  1  0
  7 40  1  0
  7 41  1  0
  8 42  1  0
  8 43  1  0
  9 44  1  0
 10 45  1  0
 10 46  1  0
 14 47  1  0
 14 48  1  0
 14 49  1  0
 16 50  1  0
 16 51  1  0
 16 52  1  0
 17 53  1  0
 17 54  1  0
 17 55  1  0
 18 56  1  0
 18 57  1  0
 20 58  1  0
 21 59  1  0
 22 60  1  0
 23 61  1  0
 24 62  1  0
 26 63  1  0
 26 64  1  0
 26 65  1  0
 27 66  1  0
 27 67  1  0
 27 68  1  0
 28 69  1  0
 28 70  1  0
 30 71  1  0
 31 72  1  0
 32 73  1  0
 33 74  1  0
 34 75  1  0
M  END
$$$$
