
     RDKit          3D

112113  0  0  0  0  0  0  0  0999 V2000
   -1.6834    1.8629    2.8333 N   0  0  0  0  0  0  0  0  0  0  0  0
   -1.8229    2.6521    1.5988 C   0  0  2  0  0  0  0  0  0  0  0  0
   -2.2418    1.7572    0.4086 C   0  0  0  0  0  0  0  0  0  0  0  0
   -2.7618    2.5722   -0.7834 C   0  0  0  0  0  0  0  0  0  0  0  0
   -3.2055    1.6594   -1.8985 C   0  0  0  0  0  0  0  0  0  0  0  0
   -2.3255    1.1949   -2.6739 O   0  0  0  0  0  0  0  0  0  0  0  0
   -4.5884    1.2836   -2.0816 N   0  0  0  0  0  0  0  0  0  0  0  0
   -4.9695    0.4395   -3.2163 C   0  0  0  0  0  0  0  0  0  0  0  0
   -5.6247    1.8085   -1.2333 C   0  0  0  0  0  0  0  0  0  0  0  0
   -6.1829    3.0020   -1.5081 C   0  0  0  0  0  0  0  0  0  0  0  0
   -5.7743    3.8331   -2.6862 C   0  0  0  0  0  0  0  0  0  0  0  0
   -6.0939    1.0071   -0.0759 C   0  0  0  0  0  0  0  0  0  0  0  0
   -6.8306    1.5420    0.7984 O   0  0  0  0  0  0  0  0  0  0  0  0
   -5.7340   -0.3793    0.0522 N   0  0  0  0  0  0  0  0  0  0  0  0
   -6.3719   -1.2505    1.0453 C   0  0  2  0  0  0  0  0  0  0  0  0
   -5.4900   -2.4956    1.3529 C   0  0  2  0  0  0  0  0  0  0  0  0
   -6.1437   -3.3832    2.4259 C   0  0  0  0  0  0  0  0  0  0  0  0
   -4.0964   -2.1219    1.8162 C   0  0  0  0  0  0  0  0  0  0  0  0
   -3.8508   -0.9534    2.2196 O   0  0  0  0  0  0  0  0  0  0  0  0
   -3.1125   -3.1448    2.0102 N   0  0  0  0  0  0  0  0  0  0  0  0
   -2.0578   -3.5402    1.0638 C   0  0  1  0  0  0  0  0  0  0  0  0
   -2.4113   -3.3283   -0.4437 C   0  0  0  0  0  0  0  0  0  0  0  0
   -1.5502   -4.2402   -1.3333 C   0  0  0  0  0  0  0  0  0  0  0  0
   -2.2804   -1.8782   -0.9405 C   0  0  0  0  0  0  0  0  0  0  0  0
   -0.7303   -2.9432    1.4709 C   0  0  0  0  0  0  0  0  0  0  0  0
    0.2564   -3.7092    1.6472 O   0  0  0  0  0  0  0  0  0  0  0  0
   -0.5792   -1.5270    1.6570 N   0  0  0  0  0  0  0  0  0  0  0  0
    0.6954   -0.9168    2.0561 C   0  0  1  0  0  0  0  0  0  0  0  0
    1.7156   -1.1768    0.9745 C   0  0  0  0  0  0  0  0  0  0  0  0
    2.9494   -1.6092    1.2572 C   0  0  0  0  0  0  0  0  0  0  0  0
    3.9843   -1.8010    0.2145 C   0  0  0  0  0  0  0  0  0  0  0  0
    3.5882   -2.2516   -1.1724 C   0  0  0  0  0  0  0  0  0  0  0  0
    5.2664   -1.5532    0.5490 C   0  0  0  0  0  0  0  0  0  0  0  0
    6.4362   -1.5406   -0.4163 C   0  0  2  0  0  0  0  0  0  0  0  0
    7.6471   -2.2339    0.2244 C   0  0  0  0  0  0  0  0  0  0  0  0
    6.7654   -0.1011   -0.9035 C   0  0  2  0  0  0  0  0  0  0  0  0
    7.1130    0.8686    0.2468 C   0  0  0  0  0  0  0  0  0  0  0  0
    7.4713    2.2303   -0.2909 C   0  0  0  0  0  0  0  0  0  0  0  0
    8.7752    2.4907   -0.7450 C   0  0  0  0  0  0  0  0  0  0  0  0
    9.0977    3.7414   -1.2808 C   0  0  0  0  0  0  0  0  0  0  0  0
    8.1208    4.7363   -1.3749 C   0  0  0  0  0  0  0  0  0  0  0  0
    6.8186    4.4813   -0.9361 C   0  0  0  0  0  0  0  0  0  0  0  0
    6.4918    3.2323   -0.3994 C   0  0  0  0  0  0  0  0  0  0  0  0
    5.6434    0.4180   -1.6034 O   0  0  0  0  0  0  0  0  0  0  0  0
    5.8538    0.3743   -2.9973 C   0  0  0  0  0  0  0  0  0  0  0  0
    0.5392    0.6153    2.2756 C   0  0  2  0  0  0  0  0  0  0  0  0
    1.8130    1.2326    2.8734 C   0  0  0  0  0  0  0  0  0  0  0  0
   -0.6351    0.9328    3.1809 C   0  0  0  0  0  0  0  0  0  0  0  0
   -0.6885    0.3671    4.3070 O   0  0  0  0  0  0  0  0  0  0  0  0
   -7.7275   -1.6533    0.5318 C   0  0  0  0  0  0  0  0  0  0  0  0
   -8.8600   -1.4095    1.3023 O   0  0  0  0  0  0  0  0  0  0  0  0
   -7.8401   -2.2186   -0.5895 O   0  0  0  0  0  0  0  0  0  0  0  0
   -0.5996    3.5009    1.3551 C   0  0  0  0  0  0  0  0  0  0  0  0
    0.1835    3.3291    0.2160 O   0  0  0  0  0  0  0  0  0  0  0  0
   -0.2790    4.3784    2.2008 O   0  0  0  0  0  0  0  0  0  0  0  0
   -2.4251    2.0087    3.5559 H   0  0  0  0  0  0  0  0  0  0  0  0
   -2.6617    3.3655    1.7641 H   0  0  0  0  0  0  0  0  0  0  0  0
   -1.4058    1.1147    0.0689 H   0  0  0  0  0  0  0  0  0  0  0  0
   -3.0607    1.0890    0.7495 H   0  0  0  0  0  0  0  0  0  0  0  0
   -1.9598    3.2339   -1.1715 H   0  0  0  0  0  0  0  0  0  0  0  0
   -3.5895    3.2331   -0.4556 H   0  0  0  0  0  0  0  0  0  0  0  0
   -4.7967    0.9887   -4.1655 H   0  0  0  0  0  0  0  0  0  0  0  0
   -4.3657   -0.4915   -3.2171 H   0  0  0  0  0  0  0  0  0  0  0  0
   -6.0427    0.1556   -3.1587 H   0  0  0  0  0  0  0  0  0  0  0  0
   -6.9717    3.3924   -0.8762 H   0  0  0  0  0  0  0  0  0  0  0  0
   -6.3749    4.7663   -2.7110 H   0  0  0  0  0  0  0  0  0  0  0  0
   -5.9524    3.2734   -3.6280 H   0  0  0  0  0  0  0  0  0  0  0  0
   -4.7012    4.1062   -2.6122 H   0  0  0  0  0  0  0  0  0  0  0  0
   -5.1697   -0.8277   -0.7027 H   0  0  0  0  0  0  0  0  0  0  0  0
   -6.5070   -0.6840    1.9942 H   0  0  0  0  0  0  0  0  0  0  0  0
   -5.4006   -3.0993    0.4261 H   0  0  0  0  0  0  0  0  0  0  0  0
   -7.1350   -3.7492    2.0861 H   0  0  0  0  0  0  0  0  0  0  0  0
   -5.5154   -4.2773    2.6261 H   0  0  0  0  0  0  0  0  0  0  0  0
   -6.2743   -2.8180    3.3738 H   0  0  0  0  0  0  0  0  0  0  0  0
   -3.0064   -3.4881    2.9916 H   0  0  0  0  0  0  0  0  0  0  0  0
   -1.9581   -4.6413    1.1983 H   0  0  0  0  0  0  0  0  0  0  0  0
   -3.4621   -3.6470   -0.5994 H   0  0  0  0  0  0  0  0  0  0  0  0
   -0.4729   -3.9882   -1.2287 H   0  0  0  0  0  0  0  0  0  0  0  0
   -1.6982   -5.3056   -1.0558 H   0  0  0  0  0  0  0  0  0  0  0  0
   -1.8409   -4.1253   -2.3996 H   0  0  0  0  0  0  0  0  0  0  0  0
   -2.8700   -1.1814   -0.3199 H   0  0  0  0  0  0  0  0  0  0  0  0
   -1.2195   -1.5501   -0.9461 H   0  0  0  0  0  0  0  0  0  0  0  0
   -2.6646   -1.8028   -1.9792 H   0  0  0  0  0  0  0  0  0  0  0  0
   -1.4096   -0.9189    1.4992 H   0  0  0  0  0  0  0  0  0  0  0  0
    1.0156   -1.3852    3.0148 H   0  0  0  0  0  0  0  0  0  0  0  0
    1.4409   -0.9329   -0.0447 H   0  0  0  0  0  0  0  0  0  0  0  0
    3.2308   -1.7519    2.2948 H   0  0  0  0  0  0  0  0  0  0  0  0
    4.2051   -3.1171   -1.4913 H   0  0  0  0  0  0  0  0  0  0  0  0
    3.7027   -1.4172   -1.8936 H   0  0  0  0  0  0  0  0  0  0  0  0
    2.5359   -2.6024   -1.2001 H   0  0  0  0  0  0  0  0  0  0  0  0
    5.4798   -1.2355    1.5646 H   0  0  0  0  0  0  0  0  0  0  0  0
    6.2017   -2.1390   -1.3196 H   0  0  0  0  0  0  0  0  0  0  0  0
    8.5267   -2.1815   -0.4520 H   0  0  0  0  0  0  0  0  0  0  0  0
    7.4135   -3.3056    0.4023 H   0  0  0  0  0  0  0  0  0  0  0  0
    7.9125   -1.7747    1.1995 H   0  0  0  0  0  0  0  0  0  0  0  0
    7.6816   -0.1684   -1.5432 H   0  0  0  0  0  0  0  0  0  0  0  0
    7.9730    0.4828    0.8331 H   0  0  0  0  0  0  0  0  0  0  0  0
    6.2540    0.9623    0.9457 H   0  0  0  0  0  0  0  0  0  0  0  0
    9.5385    1.7246   -0.6870 H   0  0  0  0  0  0  0  0  0  0  0  0
   10.1043    3.9379   -1.6267 H   0  0  0  0  0  0  0  0  0  0  0  0
    8.3717    5.7032   -1.7915 H   0  0  0  0  0  0  0  0  0  0  0  0
    6.0612    5.2504   -1.0155 H   0  0  0  0  0  0  0  0  0  0  0  0
    5.4761    3.0445   -0.0733 H   0  0  0  0  0  0  0  0  0  0  0  0
    6.0661   -0.6623   -3.3414 H   0  0  0  0  0  0  0  0  0  0  0  0
    6.6783    1.0605   -3.2918 H   0  0  0  0  0  0  0  0  0  0  0  0
    4.9296    0.7170   -3.5058 H   0  0  0  0  0  0  0  0  0  0  0  0
    0.3958    1.0728    1.2853 H   0  0  0  0  0  0  0  0  0  0  0  0
    2.0769    0.7393    3.8335 H   0  0  0  0  0  0  0  0  0  0  0  0
    2.6657    1.1282    2.1701 H   0  0  0  0  0  0  0  0  0  0  0  0
    1.6629    2.3176    3.0595 H   0  0  0  0  0  0  0  0  0  0  0  0
   -9.7796   -1.6782    0.9733 H   0  0  0  0  0  0  0  0  0  0  0  0
    1.0087    3.8958    0.0618 H   0  0  0  0  0  0  0  0  0  0  0  0
  1  2  1  0
  2  3  1  0
  3  4  1  0
  4  5  1  0
  5  6  2  0
  5  7  1  0
  7  8  1  0
  7  9  1  0
  9 10  2  0
 10 11  1  0
  9 12  1  0
 12 13  2  0
 12 14  1  0
 14 15  1  0
 15 16  1  0
 16 17  1  0
 16 18  1  0
 18 19  2  0
 18 20  1  0
 20 21  1  0
 21 22  1  0
 22 23  1  0
 22 24  1  0
 21 25  1  0
 25 26  2  0
 25 27  1  0
 27 28  1  0
 28 29  1  0
 29 30  2  0
 30 31  1  0
 31 32  1  0
 31 33  2  0
 33 34  1  0
 34 35  1  0
 34 36  1  0
 36 37  1  0
 37 38  1  0
 38 39  2  0
 39 40  1  0
 40 41  2  0
 41 42  1  0
 42 43  2  0
 36 44  1  0
 44 45  1  0
 28 46  1  0
 46 47  1  0
 46 48  1  0
 48 49  2  0
 15 50  1  0
 50 51  1  0
 50 52  2  0
  2 53  1  0
 53 54  1  0
 53 55  2  0
 48  1  1  0
 43 38  1  0
  1 56  1  0
  2 57  1  1
  3 58  1  0
  3 59  1  0
  4 60  1  0
  4 61  1  0
  8 62  1  0
  8 63  1  0
  8 64  1  0
 10 65  1  0
 11 66  1  0
 11 67  1  0
 11 68  1  0
 14 69  1  0
 15 70  1  1
 16 71  1  6
 17 72  1  0
 17 73  1  0
 17 74  1  0
 20 75  1  0
 21 76  1  6
 22 77  1  0
 23 78  1  0
 23 79  1  0
 23 80  1  0
 24 81  1  0
 24 82  1  0
 24 83  1  0
 27 84  1  0
 28 85  1  1
 29 86  1  0
 30 87  1  0
 32 88  1  0
 32 89  1  0
 32 90  1  0
 33 91  1  0
 34 92  1  6
 35 93  1  0
 35 94  1  0
 35 95  1  0
 36 96  1  6
 37 97  1  0
 37 98  1  0
 39 99  1  0
 40100  1  0
 41101  1  0
 42102  1  0
 43103  1  0
 45104  1  0
 45105  1  0
 45106  1  0
 46107  1  6
 47108  1  0
 47109  1  0
 47110  1  0
 51111  1  0
 54112  1  0
M  END
$$$$
