
     RDKit          3D

 42 43  0  0  0  0  0  0  0  0999 V2000
   -4.7173    1.7981   -0.3116 N   0  0  0  0  0  0  0  0  0  0  0  0
   -4.2242    0.7289    0.5709 C   0  0  2  0  0  0  0  0  0  0  0  0
   -2.6612    0.7433    0.5521 C   0  0  0  0  0  0  0  0  0  0  0  0
   -1.8507   -0.5255    1.5347 S   0  0  0  0  0  6  0  0  0  0  0  0
   -1.7592   -0.0780    2.9671 O   0  0  0  0  0  0  0  0  0  0  0  0
   -2.5941   -1.8309    1.4826 O   0  0  0  0  0  0  0  0  0  0  0  0
   -0.2294   -0.7679    0.8935 C   0  0  0  0  0  0  0  0  0  0  0  0
   -0.0354   -1.5992   -0.2173 C   0  0  0  0  0  0  0  0  0  0  0  0
    1.2467   -1.7831   -0.7430 C   0  0  0  0  0  0  0  0  0  0  0  0
    2.3455   -1.1253   -0.1784 C   0  0  0  0  0  0  0  0  0  0  0  0
    3.6178   -1.3470   -0.7256 O   0  0  0  0  0  0  0  0  0  0  0  0
    4.6729   -0.4227   -0.7312 C   0  0  0  0  0  0  0  0  0  0  0  0
    4.4474    0.9651   -0.8029 C   0  0  0  0  0  0  0  0  0  0  0  0
    5.5277    1.8530   -0.8234 C   0  0  0  0  0  0  0  0  0  0  0  0
    6.8365    1.3646   -0.7849 C   0  0  0  0  0  0  0  0  0  0  0  0
    7.0669   -0.0129   -0.7337 C   0  0  0  0  0  0  0  0  0  0  0  0
    5.9885   -0.9031   -0.7134 C   0  0  0  0  0  0  0  0  0  0  0  0
    2.1513   -0.3007    0.9445 C   0  0  0  0  0  0  0  0  0  0  0  0
    0.8692   -0.1169    1.4706 C   0  0  0  0  0  0  0  0  0  0  0  0
   -4.7629   -0.5964    0.0342 C   0  0  0  0  0  0  0  0  0  0  0  0
   -5.6221   -1.2493    0.6884 O   0  0  0  0  0  0  0  0  0  0  0  0
   -4.3348   -1.1031   -1.2367 N   0  0  0  0  0  0  0  0  0  0  0  0
   -4.7838   -2.3008   -1.6824 O   0  0  0  0  0  0  0  0  0  0  0  0
   -4.7664    1.0147    2.0046 C   0  0  0  0  0  0  0  0  0  0  0  0
   -4.5229   -0.0444    2.8615 F   0  0  0  0  0  0  0  0  0  0  0  0
   -6.1348    1.2245    1.9575 F   0  0  0  0  0  0  0  0  0  0  0  0
   -4.1752    2.1505    2.5318 F   0  0  0  0  0  0  0  0  0  0  0  0
   -4.3588    2.7237    0.0203 H   0  0  0  0  0  0  0  0  0  0  0  0
   -4.3445    1.6670   -1.2803 H   0  0  0  0  0  0  0  0  0  0  0  0
   -2.2939    0.6457   -0.4902 H   0  0  0  0  0  0  0  0  0  0  0  0
   -2.2908    1.7289    0.9062 H   0  0  0  0  0  0  0  0  0  0  0  0
   -0.8765   -2.1025   -0.6775 H   0  0  0  0  0  0  0  0  0  0  0  0
    1.3861   -2.4308   -1.5992 H   0  0  0  0  0  0  0  0  0  0  0  0
    3.4414    1.3588   -0.8626 H   0  0  0  0  0  0  0  0  0  0  0  0
    5.3501    2.9193   -0.8765 H   0  0  0  0  0  0  0  0  0  0  0  0
    7.6717    2.0528   -0.8023 H   0  0  0  0  0  0  0  0  0  0  0  0
    8.0807   -0.3910   -0.7116 H   0  0  0  0  0  0  0  0  0  0  0  0
    6.1746   -1.9689   -0.6761 H   0  0  0  0  0  0  0  0  0  0  0  0
    2.9908    0.1862    1.4231 H   0  0  0  0  0  0  0  0  0  0  0  0
    0.7365    0.5299    2.3283 H   0  0  0  0  0  0  0  0  0  0  0  0
   -3.6668   -0.5672   -1.8327 H   0  0  0  0  0  0  0  0  0  0  0  0
   -5.5968   -2.0876   -2.2080 H   0  0  0  0  0  0  0  0  0  0  0  0
  2  1  1  6
  2  3  1  0
  3  4  1  0
  4  5  2  0
  4  6  2  0
  4  7  1  0
  7  8  2  0
  8  9  1  0
  9 10  2  0
 10 11  1  0
 11 12  1  0
 12 13  2  0
 13 14  1  0
 14 15  2  0
 15 16  1  0
 16 17  2  0
 10 18  1  0
 18 19  2  0
  2 20  1  0
 20 21  2  0
 20 22  1  0
 22 23  1  0
  2 24  1  0
 24 25  1  0
 24 26  1  0
 24 27  1  0
 19  7  1  0
 17 12  1  0
  1 28  1  0
  1 29  1  0
  3 30  1  0
  3 31  1  0
  8 32  1  0
  9 33  1  0
 13 34  1  0
 14 35  1  0
 15 36  1  0
 16 37  1  0
 17 38  1  0
 18 39  1  0
 19 40  1  0
 22 41  1  0
 23 42  1  0
M  END
$$$$
