
     RDKit          3D

 32 34  0  0  0  0  0  0  0  0999 V2000
    2.8241    0.2312    2.6233 N   0  0  0  0  0  0  0  0  0  0  0  0
    2.7767    0.0772    1.2053 C   0  0  0  0  0  0  0  0  0  0  0  0
    3.9460   -0.0422    0.4956 N   0  0  0  0  0  0  0  0  0  0  0  0
    3.9420   -0.1952   -0.8608 C   0  0  0  0  0  0  0  0  0  0  0  0
    5.0219   -0.3092   -1.4975 O   0  0  0  0  0  0  0  0  0  0  0  0
    2.7152   -0.2230   -1.5072 C   0  0  0  0  0  0  0  0  0  0  0  0
    1.5723   -0.0985   -0.7939 C   0  0  0  0  0  0  0  0  0  0  0  0
    1.5700    0.0457    0.5562 N   0  0  0  0  0  0  0  0  0  0  0  0
    0.5196   -0.1660   -1.6248 N   0  0  0  0  0  0  0  0  0  0  0  0
    1.0843   -0.3444   -2.8474 C   0  0  0  0  0  0  0  0  0  0  0  0
    2.4449   -0.3815   -2.8161 N   0  0  0  0  0  0  0  0  0  0  0  0
   -0.9128   -0.1199   -1.3182 C   0  0  2  0  0  0  0  0  0  0  0  0
   -1.1937    0.9886   -0.4954 O   0  0  0  0  0  0  0  0  0  0  0  0
   -2.2672    0.6036    0.3295 C   0  0  2  0  0  0  0  0  0  0  0  0
   -2.2592    1.4248    1.6244 C   0  0  0  0  0  0  0  0  0  0  0  0
   -2.4023    2.7897    1.3382 O   0  0  0  0  0  0  0  0  0  0  0  0
   -2.1401   -0.8894    0.6006 C   0  0  0  0  0  0  0  0  0  0  0  0
   -1.3662   -1.3976   -0.5973 C   0  0  1  0  0  0  0  0  0  0  0  0
   -2.1585   -2.2111   -1.4294 O   0  0  0  0  0  0  0  0  0  0  0  0
    3.7419    0.2541    3.1206 H   0  0  0  0  0  0  0  0  0  0  0  0
    1.9448    0.3230    3.1789 H   0  0  0  0  0  0  0  0  0  0  0  0
    0.6780    0.1263    1.0902 H   0  0  0  0  0  0  0  0  0  0  0  0
    0.5128   -0.4524   -3.7603 H   0  0  0  0  0  0  0  0  0  0  0  0
   -1.4807    0.0107   -2.2678 H   0  0  0  0  0  0  0  0  0  0  0  0
   -3.2227    0.7957   -0.2112 H   0  0  0  0  0  0  0  0  0  0  0  0
   -1.2962    1.2769    2.1583 H   0  0  0  0  0  0  0  0  0  0  0  0
   -3.0791    1.0852    2.2981 H   0  0  0  0  0  0  0  0  0  0  0  0
   -3.3592    2.9350    1.1170 H   0  0  0  0  0  0  0  0  0  0  0  0
   -1.5557   -1.0823    1.5282 H   0  0  0  0  0  0  0  0  0  0  0  0
   -3.1399   -1.3668    0.7002 H   0  0  0  0  0  0  0  0  0  0  0  0
   -0.4955   -1.9960   -0.2482 H   0  0  0  0  0  0  0  0  0  0  0  0
   -2.9654   -1.6927   -1.6891 H   0  0  0  0  0  0  0  0  0  0  0  0
  1  2  1  0
  2  3  2  0
  3  4  1  0
  4  5  2  0
  4  6  1  0
  6  7  2  0
  7  8  1  0
  7  9  1  0
  9 10  1  0
 10 11  2  0
  9 12  1  0
 12 13  1  0
 13 14  1  0
 14 15  1  0
 15 16  1  0
 14 17  1  0
 17 18  1  0
 18 19  1  0
  8  2  1  0
 18 12  1  0
 11  6  1  0
  1 20  1  0
  1 21  1  0
  8 22  1  0
 10 23  1  0
 12 24  1  6
 14 25  1  6
 15 26  1  0
 15 27  1  0
 16 28  1  0
 17 29  1  0
 17 30  1  0
 18 31  1  1
 19 32  1  0
M  END
$$$$
