
     RDKit          3D

 47 46  0  0  0  0  0  0  0  0999 V2000
   -4.9899   -1.9836   -0.1282 C   0  0  0  0  0  0  0  0  0  0  0  0
   -4.6005   -0.8972   -0.9470 O   0  0  0  0  0  0  0  0  0  0  0  0
   -4.5203    0.3526   -0.2593 C   0  0  0  0  0  0  0  0  0  0  0  0
   -5.8197    0.6859    0.5184 C   0  0  0  0  0  0  0  0  0  0  0  0
   -4.3547    1.4338   -1.3458 C   0  0  0  0  0  0  0  0  0  0  0  0
   -3.3001    0.4104    0.7119 C   0  0  0  0  0  0  0  0  0  0  0  0
   -1.9899   -0.1171    0.0983 C   0  0  0  0  0  0  0  0  0  0  0  0
   -0.8569   -0.1134    1.1381 C   0  0  0  0  0  0  0  0  0  0  0  0
    0.5226   -0.4637    0.5315 C   0  0  2  0  0  0  0  0  0  0  0  0
    0.5709   -1.9274    0.0544 C   0  0  0  0  0  0  0  0  0  0  0  0
    1.6315   -0.1930    1.5751 C   0  0  0  0  0  0  0  0  0  0  0  0
    3.0127   -0.3287    0.9956 C   0  0  0  0  0  0  0  0  0  0  0  0
    3.4952    0.5641    0.1225 C   0  0  0  0  0  0  0  0  0  0  0  0
    4.8584    0.4742   -0.4588 C   0  0  0  0  0  0  0  0  0  0  0  0
    5.5291   -0.8710   -0.6099 C   0  0  0  0  0  0  0  0  0  0  0  0
    5.4484    1.6200   -0.8579 C   0  0  0  0  0  0  0  0  0  0  0  0
    6.8251    1.7512   -1.3799 C   0  0  0  0  0  0  0  0  0  0  0  0
    7.7744    0.7480   -1.2066 O   0  0  0  0  0  0  0  0  0  0  0  0
    7.1585    2.8206   -1.9562 O   0  0  0  0  0  0  0  0  0  0  0  0
   -6.0817   -1.9539    0.0718 H   0  0  0  0  0  0  0  0  0  0  0  0
   -4.4179   -2.0397    0.8198 H   0  0  0  0  0  0  0  0  0  0  0  0
   -4.7881   -2.9238   -0.6808 H   0  0  0  0  0  0  0  0  0  0  0  0
   -5.9435    0.0268    1.4037 H   0  0  0  0  0  0  0  0  0  0  0  0
   -5.7963    1.7334    0.8899 H   0  0  0  0  0  0  0  0  0  0  0  0
   -6.7066    0.5649   -0.1402 H   0  0  0  0  0  0  0  0  0  0  0  0
   -4.2060    2.4394   -0.8957 H   0  0  0  0  0  0  0  0  0  0  0  0
   -3.4903    1.2076   -2.0039 H   0  0  0  0  0  0  0  0  0  0  0  0
   -5.2578    1.4707   -1.9928 H   0  0  0  0  0  0  0  0  0  0  0  0
   -3.5200   -0.1697    1.6337 H   0  0  0  0  0  0  0  0  0  0  0  0
   -3.1447    1.4607    1.0456 H   0  0  0  0  0  0  0  0  0  0  0  0
   -1.6935    0.5220   -0.7595 H   0  0  0  0  0  0  0  0  0  0  0  0
   -2.1503   -1.1525   -0.2655 H   0  0  0  0  0  0  0  0  0  0  0  0
   -1.1006   -0.8262    1.9569 H   0  0  0  0  0  0  0  0  0  0  0  0
   -0.8025    0.9048    1.5837 H   0  0  0  0  0  0  0  0  0  0  0  0
    0.6954    0.1983   -0.3461 H   0  0  0  0  0  0  0  0  0  0  0  0
   -0.1388   -2.0924   -0.7816 H   0  0  0  0  0  0  0  0  0  0  0  0
    1.5813   -2.1824   -0.3284 H   0  0  0  0  0  0  0  0  0  0  0  0
    0.3207   -2.6198    0.8865 H   0  0  0  0  0  0  0  0  0  0  0  0
    1.5242   -0.9059    2.4220 H   0  0  0  0  0  0  0  0  0  0  0  0
    1.5260    0.8328    1.9921 H   0  0  0  0  0  0  0  0  0  0  0  0
    3.6272   -1.1497    1.3427 H   0  0  0  0  0  0  0  0  0  0  0  0
    2.8805    1.4197   -0.1360 H   0  0  0  0  0  0  0  0  0  0  0  0
    4.7921   -1.6986   -0.5562 H   0  0  0  0  0  0  0  0  0  0  0  0
    6.2852   -1.0091    0.1910 H   0  0  0  0  0  0  0  0  0  0  0  0
    6.0074   -0.9588   -1.6078 H   0  0  0  0  0  0  0  0  0  0  0  0
    4.8851    2.5444   -0.7856 H   0  0  0  0  0  0  0  0  0  0  0  0
    8.7189    0.8590   -1.5555 H   0  0  0  0  0  0  0  0  0  0  0  0
  1  2  1  0
  2  3  1  0
  3  4  1  0
  3  5  1  0
  3  6  1  0
  6  7  1  0
  7  8  1  0
  8  9  1  0
  9 10  1  0
  9 11  1  0
 11 12  1  0
 12 13  2  0
 13 14  1  0
 14 15  1  0
 14 16  2  0
 16 17  1  0
 17 18  1  0
 17 19  2  0
  1 20  1  0
  1 21  1  0
  1 22  1  0
  4 23  1  0
  4 24  1  0
  4 25  1  0
  5 26  1  0
  5 27  1  0
  5 28  1  0
  6 29  1  0
  6 30  1  0
  7 31  1  0
  7 32  1  0
  8 33  1  0
  8 34  1  0
  9 35  1  6
 10 36  1  0
 10 37  1  0
 10 38  1  0
 11 39  1  0
 11 40  1  0
 12 41  1  0
 13 42  1  0
 15 43  1  0
 15 44  1  0
 15 45  1  0
 16 46  1  0
 18 47  1  0
M  END
$$$$
