
     RDKit          3D

 18 17  0  0  0  0  0  0  0  0999 V2000
    0.7905    0.3761   -0.5520 C   0  0  1  0  0  0  0  0  0  0  0  0
    1.0842    1.4516    0.3050 O   0  0  0  0  0  0  0  0  0  0  0  0
    1.4268   -0.9047    0.0065 C   0  0  0  0  0  0  0  0  0  0  0  0
    3.2429   -0.7863   -0.0449 S   0  0  0  0  0  0  0  0  0  0  0  0
   -0.7418    0.2300   -0.7425 C   0  0  2  0  0  0  0  0  0  0  0  0
   -1.2341    1.2908   -1.5248 O   0  0  0  0  0  0  0  0  0  0  0  0
   -1.5141    0.1294    0.5897 C   0  0  0  0  0  0  0  0  0  0  0  0
   -3.3017   -0.0595    0.2927 S   0  0  0  0  0  0  0  0  0  0  0  0
    1.2405    0.5537   -1.5584 H   0  0  0  0  0  0  0  0  0  0  0  0
    1.1314    2.2687   -0.2566 H   0  0  0  0  0  0  0  0  0  0  0  0
    1.1175   -1.7828   -0.5999 H   0  0  0  0  0  0  0  0  0  0  0  0
    1.1173   -1.0680    1.0599 H   0  0  0  0  0  0  0  0  0  0  0  0
    3.4073   -2.0693    0.5109 H   0  0  0  0  0  0  0  0  0  0  0  0
   -0.9261   -0.7065   -1.3133 H   0  0  0  0  0  0  0  0  0  0  0  0
   -1.1623    2.1227   -0.9879 H   0  0  0  0  0  0  0  0  0  0  0  0
   -1.1710   -0.7486    1.1743 H   0  0  0  0  0  0  0  0  0  0  0  0
   -1.3543    1.0430    1.2005 H   0  0  0  0  0  0  0  0  0  0  0  0
   -3.1531   -1.3401   -0.2737 H   0  0  0  0  0  0  0  0  0  0  0  0
  1  2  1  0
  1  3  1  0
  3  4  1  0
  1  5  1  0
  5  6  1  0
  5  7  1  0
  7  8  1  0
  1  9  1  6
  2 10  1  0
  3 11  1  0
  3 12  1  0
  4 13  1  0
  5 14  1  6
  6 15  1  0
  7 16  1  0
  7 17  1  0
  8 18  1  0
M  END
$$$$
