
     RDKit          3D

 71 73  0  0  0  0  0  0  0  0999 V2000
   -2.9378   -3.1197   -0.6552 C   0  0  0  0  0  0  0  0  0  0  0  0
   -2.8903   -2.0042   -1.7163 C   0  0  2  0  0  0  0  0  0  0  0  0
   -2.3618   -0.7911   -1.1978 O   0  0  0  0  0  0  0  0  0  0  0  0
   -3.2680   -0.1286   -0.3262 C   0  0  1  0  0  0  0  0  0  0  0  0
   -2.6570    1.0385    0.1904 O   0  0  0  0  0  0  0  0  0  0  0  0
   -1.5526    0.7319    1.0333 C   0  0  2  0  0  0  0  0  0  0  0  0
   -1.6647    1.5919    2.3064 C   0  0  1  0  0  0  0  0  0  0  0  0
   -0.6432    1.2390    3.2076 O   0  0  0  0  0  0  0  0  0  0  0  0
   -1.5632    3.0955    1.9548 C   0  0  1  0  0  0  0  0  0  0  0  0
   -1.1417    3.8080    3.0933 O   0  0  0  0  0  0  0  0  0  0  0  0
   -0.6098    3.3140    0.7410 C   0  0  1  0  0  0  0  0  0  0  0  0
    0.0968    4.6770    0.7440 C   0  0  0  0  0  0  0  0  0  0  0  0
    1.0673    4.7267    1.7543 O   0  0  0  0  0  0  0  0  0  0  0  0
    0.3605    2.2862    0.6926 O   0  0  0  0  0  0  0  0  0  0  0  0
   -0.2181    1.0489    0.2872 C   0  0  1  0  0  0  0  0  0  0  0  0
    0.6992    0.0032    0.5584 O   0  0  0  0  0  0  0  0  0  0  0  0
    1.8653    0.0900   -0.2520 C   0  0  1  0  0  0  0  0  0  0  0  0
    3.0553    0.5552    0.6234 C   0  0  2  0  0  0  0  0  0  0  0  0
    3.1465    1.9564    0.5545 O   0  0  0  0  0  0  0  0  0  0  0  0
    4.3978   -0.0764    0.1673 C   0  0  1  0  0  0  0  0  0  0  0  0
    4.7124   -1.2821    0.9483 N   0  0  0  0  0  0  0  0  0  0  0  0
    6.0275   -1.8548    0.9816 C   0  0  0  0  0  0  0  0  0  0  0  0
    6.2783   -3.0988    1.7699 C   0  0  0  0  0  0  0  0  0  0  0  0
    6.9851   -1.2952    0.3821 O   0  0  0  0  0  0  0  0  0  0  0  0
    4.3479   -0.4148   -1.3436 C   0  0  2  0  0  0  0  0  0  0  0  0
    4.2039    0.7572   -2.1046 O   0  0  0  0  0  0  0  0  0  0  0  0
    3.3172   -1.3274   -1.7023 O   0  0  0  0  0  0  0  0  0  0  0  0
    2.1598   -1.3017   -0.8704 C   0  0  2  0  0  0  0  0  0  0  0  0
    0.9605   -1.7892   -1.6972 C   0  0  0  0  0  0  0  0  0  0  0  0
    1.2149   -3.0616   -2.2299 O   0  0  0  0  0  0  0  0  0  0  0  0
   -4.5368    0.2921   -1.0845 C   0  0  1  0  0  0  0  0  0  0  0  0
   -4.1924    1.1935   -2.1066 O   0  0  0  0  0  0  0  0  0  0  0  0
   -5.2306   -0.9446   -1.6777 C   0  0  2  0  0  0  0  0  0  0  0  0
   -5.8021   -1.7035   -0.6417 O   0  0  0  0  0  0  0  0  0  0  0  0
   -4.2173   -1.7831   -2.4861 C   0  0  2  0  0  0  0  0  0  0  0  0
   -4.7741   -3.0161   -2.8654 O   0  0  0  0  0  0  0  0  0  0  0  0
   -1.9792   -3.1441   -0.0952 H   0  0  0  0  0  0  0  0  0  0  0  0
   -3.0736   -4.1062   -1.1470 H   0  0  0  0  0  0  0  0  0  0  0  0
   -3.7647   -2.9805    0.0674 H   0  0  0  0  0  0  0  0  0  0  0  0
   -2.1567   -2.3577   -2.4740 H   0  0  0  0  0  0  0  0  0  0  0  0
   -3.5743   -0.7814    0.5235 H   0  0  0  0  0  0  0  0  0  0  0  0
   -1.5458   -0.3374    1.3611 H   0  0  0  0  0  0  0  0  0  0  0  0
   -2.6559    1.4107    2.7854 H   0  0  0  0  0  0  0  0  0  0  0  0
   -0.9098    0.3774    3.6228 H   0  0  0  0  0  0  0  0  0  0  0  0
   -2.5822    3.4404    1.6530 H   0  0  0  0  0  0  0  0  0  0  0  0
   -1.5823    4.6973    3.0646 H   0  0  0  0  0  0  0  0  0  0  0  0
   -1.2245    3.2995   -0.1915 H   0  0  0  0  0  0  0  0  0  0  0  0
    0.5892    4.8263   -0.2431 H   0  0  0  0  0  0  0  0  0  0  0  0
   -0.6502    5.4900    0.8860 H   0  0  0  0  0  0  0  0  0  0  0  0
    1.4719    5.6313    1.7027 H   0  0  0  0  0  0  0  0  0  0  0  0
   -0.4337    1.0811   -0.8079 H   0  0  0  0  0  0  0  0  0  0  0  0
    1.7552    0.7994   -1.1093 H   0  0  0  0  0  0  0  0  0  0  0  0
    2.8532    0.2635    1.6821 H   0  0  0  0  0  0  0  0  0  0  0  0
    3.6567    2.2543    1.3527 H   0  0  0  0  0  0  0  0  0  0  0  0
    5.2121    0.6629    0.3416 H   0  0  0  0  0  0  0  0  0  0  0  0
    3.9800   -1.7203    1.5517 H   0  0  0  0  0  0  0  0  0  0  0  0
    5.4833   -3.8440    1.5578 H   0  0  0  0  0  0  0  0  0  0  0  0
    7.2615   -3.5394    1.5000 H   0  0  0  0  0  0  0  0  0  0  0  0
    6.2733   -2.8569    2.8530 H   0  0  0  0  0  0  0  0  0  0  0  0
    5.3115   -0.8959   -1.6251 H   0  0  0  0  0  0  0  0  0  0  0  0
    5.0693    1.2419   -2.0567 H   0  0  0  0  0  0  0  0  0  0  0  0
    2.2992   -2.0371   -0.0483 H   0  0  0  0  0  0  0  0  0  0  0  0
    0.0692   -1.8688   -1.0426 H   0  0  0  0  0  0  0  0  0  0  0  0
    0.7245   -1.0626   -2.5091 H   0  0  0  0  0  0  0  0  0  0  0  0
    1.7181   -2.9241   -3.0745 H   0  0  0  0  0  0  0  0  0  0  0  0
   -5.2288    0.7902   -0.3647 H   0  0  0  0  0  0  0  0  0  0  0  0
   -5.0279    1.6598   -2.3717 H   0  0  0  0  0  0  0  0  0  0  0  0
   -6.0381   -0.5946   -2.3639 H   0  0  0  0  0  0  0  0  0  0  0  0
   -6.5173   -2.2591   -1.0483 H   0  0  0  0  0  0  0  0  0  0  0  0
   -3.9618   -1.2068   -3.4071 H   0  0  0  0  0  0  0  0  0  0  0  0
   -5.4558   -2.8211   -3.5605 H   0  0  0  0  0  0  0  0  0  0  0  0
  1  2  1  0
  2  3  1  0
  3  4  1  0
  4  5  1  0
  5  6  1  0
  6  7  1  0
  7  8  1  0
  7  9  1  0
  9 10  1  0
  9 11  1  0
 11 12  1  0
 12 13  1  0
 11 14  1  0
 14 15  1  0
 15 16  1  0
 16 17  1  0
 17 18  1  0
 18 19  1  0
 18 20  1  0
 20 21  1  0
 21 22  1  0
 22 23  1  0
 22 24  2  0
 20 25  1  0
 25 26  1  0
 25 27  1  0
 27 28  1  0
 28 29  1  0
 29 30  1  0
  4 31  1  0
 31 32  1  0
 31 33  1  0
 33 34  1  0
 33 35  1  0
 35 36  1  0
 35  2  1  0
 15  6  1  0
 28 17  1  0
  1 37  1  0
  1 38  1  0
  1 39  1  0
  2 40  1  6
  4 41  1  1
  6 42  1  1
  7 43  1  1
  8 44  1  0
  9 45  1  6
 10 46  1  0
 11 47  1  6
 12 48  1  0
 12 49  1  0
 13 50  1  0
 15 51  1  6
 17 52  1  6
 18 53  1  1
 19 54  1  0
 20 55  1  6
 21 56  1  0
 23 57  1  0
 23 58  1  0
 23 59  1  0
 25 60  1  6
 26 61  1  0
 28 62  1  1
 29 63  1  0
 29 64  1  0
 30 65  1  0
 31 66  1  1
 32 67  1  0
 33 68  1  6
 34 69  1  0
 35 70  1  6
 36 71  1  0
M  END
$$$$
