
     RDKit          3D

108113  0  0  0  0  0  0  0  0999 V2000
   -3.1844    3.5414   -3.4853 C   0  0  0  0  0  0  0  0  0  0  0  0
   -3.7035    3.4930   -2.1731 O   0  0  0  0  0  0  0  0  0  0  0  0
   -2.7167    3.0445   -1.2543 C   0  0  1  0  0  0  0  0  0  0  0  0
   -1.9044    4.2218   -0.7703 C   0  0  0  0  0  0  0  0  0  0  0  0
   -0.7743    4.0247   -0.0952 C   0  0  0  0  0  0  0  0  0  0  0  0
    0.0922    5.0891    0.1668 O   0  0  0  0  0  0  0  0  0  0  0  0
    1.3848    4.9037    0.7509 C   0  0  1  0  0  0  0  0  0  0  0  0
    2.2147    6.1767    0.6054 C   0  0  0  0  0  0  0  0  0  0  0  0
    1.2666    4.5541    2.1301 O   0  0  0  0  0  0  0  0  0  0  0  0
    1.8057    3.2926    2.3664 C   0  0  0  0  0  0  0  0  0  0  0  0
    1.9155    2.6679    3.6102 C   0  0  0  0  0  0  0  0  0  0  0  0
    1.4148    3.3619    4.8481 C   0  0  0  0  0  0  0  0  0  0  0  0
    2.5346    1.3922    3.6708 C   0  0  0  0  0  0  0  0  0  0  0  0
    2.7049    0.7529    4.9036 O   0  0  0  0  0  0  0  0  0  0  0  0
    2.9604    0.7411    2.4724 C   0  0  0  0  0  0  0  0  0  0  0  0
    3.5990   -0.5376    2.5029 C   0  0  0  0  0  0  0  0  0  0  0  0
    4.0545   -1.0534    3.7181 O   0  0  0  0  0  0  0  0  0  0  0  0
    3.8246   -1.2580    1.3022 C   0  0  0  0  0  0  0  0  0  0  0  0
    4.4649   -2.5399    1.3140 N   0  0  0  0  0  0  0  0  0  0  0  0
    3.8927   -3.7331    1.8756 C   0  0  0  0  0  0  0  0  0  0  0  0
    4.4600   -4.8376    1.6634 O   0  0  0  0  0  0  0  0  0  0  0  0
    2.7153   -3.7110    2.7702 C   0  0  0  0  0  0  0  0  0  0  0  0
    2.9217   -4.0746    4.2140 C   0  0  0  0  0  0  0  0  0  0  0  0
    1.4564   -3.5974    2.3164 C   0  0  0  0  0  0  0  0  0  0  0  0
    1.0921   -3.3977    0.9017 C   0  0  0  0  0  0  0  0  0  0  0  0
   -0.1071   -3.8012    0.4631 C   0  0  0  0  0  0  0  0  0  0  0  0
   -0.6534   -3.5362   -0.9257 C   0  0  2  0  0  0  0  0  0  0  0  0
    0.4448   -3.5814   -2.0046 C   0  0  0  0  0  0  0  0  0  0  0  0
   -1.4724   -2.2077   -0.9424 C   0  0  2  0  0  0  0  0  0  0  0  0
   -2.4002   -2.2245    0.1121 O   0  0  0  0  0  0  0  0  0  0  0  0
   -2.2314   -1.9591   -2.2819 C   0  0  1  0  0  0  0  0  0  0  0  0
   -3.2762   -3.0543   -2.5897 C   0  0  0  0  0  0  0  0  0  0  0  0
   -2.7486   -0.4885   -2.4612 C   0  0  1  0  0  0  0  0  0  0  0  0
   -3.1314   -0.2851   -3.8023 O   0  0  0  0  0  0  0  0  0  0  0  0
   -3.8251    0.1153   -1.4761 C   0  0  1  0  0  0  0  0  0  0  0  0
   -5.0367   -0.7962   -1.2074 C   0  0  0  0  0  0  0  0  0  0  0  0
   -3.2102    0.7338   -0.1642 C   0  0  2  0  0  0  0  0  0  0  0  0
   -3.7606    0.1124    1.0044 O   0  0  0  0  0  0  0  0  0  0  0  0
   -3.1631    0.1586    2.2705 C   0  0  0  0  0  0  0  0  0  0  0  0
   -3.8472   -0.4897    3.4243 C   0  0  0  0  0  0  0  0  0  0  0  0
   -2.0276    0.6829    2.4331 O   0  0  0  0  0  0  0  0  0  0  0  0
   -3.3833    2.2835   -0.0590 C   0  0  2  0  0  0  0  0  0  0  0  0
   -4.8503    2.6952    0.1728 C   0  0  0  0  0  0  0  0  0  0  0  0
    3.4994   -0.6301    0.0909 C   0  0  0  0  0  0  0  0  0  0  0  0
    3.0075    0.6528    0.0474 C   0  0  0  0  0  0  0  0  0  0  0  0
    2.7249    1.0081   -1.2249 N   0  0  0  0  0  0  0  0  0  0  0  0
    3.0715   -0.0892   -1.9326 C   0  0  0  0  0  0  0  0  0  0  0  0
    2.9332   -0.2256   -3.3118 C   0  0  0  0  0  0  0  0  0  0  0  0
    3.2808   -1.4580   -3.8942 C   0  0  0  0  0  0  0  0  0  0  0  0
    3.1745   -1.6465   -5.3778 C   0  0  0  0  0  0  0  0  0  0  0  0
    3.7737   -2.5004   -3.0815 C   0  0  0  0  0  0  0  0  0  0  0  0
    3.8872   -2.3122   -1.6973 C   0  0  0  0  0  0  0  0  0  0  0  0
    3.5410   -1.1029   -1.1735 N   0  0  0  0  0  0  0  0  0  0  0  0
    2.7495    1.3869    1.2121 C   0  0  0  0  0  0  0  0  0  0  0  0
    2.2536    2.7020    1.2131 C   0  0  0  0  0  0  0  0  0  0  0  0
    2.0906    3.7091    0.1657 C   0  0  0  0  0  0  0  0  0  0  0  0
    2.5122    3.6353   -1.0181 O   0  0  0  0  0  0  0  0  0  0  0  0
   -2.2756    4.1808   -3.5417 H   0  0  0  0  0  0  0  0  0  0  0  0
   -2.9613    2.5187   -3.8593 H   0  0  0  0  0  0  0  0  0  0  0  0
   -3.9511    3.9844   -4.1531 H   0  0  0  0  0  0  0  0  0  0  0  0
   -1.9931    2.3503   -1.7432 H   0  0  0  0  0  0  0  0  0  0  0  0
   -2.1726    5.2248   -1.0802 H   0  0  0  0  0  0  0  0  0  0  0  0
   -0.5042    3.0198    0.2106 H   0  0  0  0  0  0  0  0  0  0  0  0
    1.7010    7.0198    1.1139 H   0  0  0  0  0  0  0  0  0  0  0  0
    3.2169    6.0411    1.0661 H   0  0  0  0  0  0  0  0  0  0  0  0
    2.3407    6.4321   -0.4684 H   0  0  0  0  0  0  0  0  0  0  0  0
    2.2655    3.5710    5.5302 H   0  0  0  0  0  0  0  0  0  0  0  0
    0.6719    2.7189    5.3650 H   0  0  0  0  0  0  0  0  0  0  0  0
    0.9185    4.3263    4.6115 H   0  0  0  0  0  0  0  0  0  0  0  0
    2.4299    1.1596    5.7881 H   0  0  0  0  0  0  0  0  0  0  0  0
    4.6737   -1.8510    3.7754 H   0  0  0  0  0  0  0  0  0  0  0  0
    5.3670   -2.6296    0.7943 H   0  0  0  0  0  0  0  0  0  0  0  0
    2.3954   -3.3477    4.8689 H   0  0  0  0  0  0  0  0  0  0  0  0
    4.0002   -4.0664    4.4792 H   0  0  0  0  0  0  0  0  0  0  0  0
    2.5234   -5.0937    4.4047 H   0  0  0  0  0  0  0  0  0  0  0  0
    0.6432   -3.7198    3.0249 H   0  0  0  0  0  0  0  0  0  0  0  0
    1.7923   -2.9297    0.2283 H   0  0  0  0  0  0  0  0  0  0  0  0
   -0.7795   -4.2915    1.1592 H   0  0  0  0  0  0  0  0  0  0  0  0
   -1.3466   -4.3786   -1.1336 H   0  0  0  0  0  0  0  0  0  0  0  0
    1.1532   -4.4147   -1.8081 H   0  0  0  0  0  0  0  0  0  0  0  0
    0.0013   -3.7634   -3.0053 H   0  0  0  0  0  0  0  0  0  0  0  0
    1.0060   -2.6244   -2.0319 H   0  0  0  0  0  0  0  0  0  0  0  0
   -0.7527   -1.3665   -0.7972 H   0  0  0  0  0  0  0  0  0  0  0  0
   -1.9204   -1.9315    0.9298 H   0  0  0  0  0  0  0  0  0  0  0  0
   -1.4740   -2.0535   -3.0892 H   0  0  0  0  0  0  0  0  0  0  0  0
   -3.8906   -3.3066   -1.7044 H   0  0  0  0  0  0  0  0  0  0  0  0
   -2.7627   -3.9846   -2.9107 H   0  0  0  0  0  0  0  0  0  0  0  0
   -3.9437   -2.7663   -3.4250 H   0  0  0  0  0  0  0  0  0  0  0  0
   -1.8404    0.1399   -2.3473 H   0  0  0  0  0  0  0  0  0  0  0  0
   -4.0721   -0.5767   -3.9094 H   0  0  0  0  0  0  0  0  0  0  0  0
   -4.2673    0.9583   -2.0467 H   0  0  0  0  0  0  0  0  0  0  0  0
   -5.4481   -1.2064   -2.1519 H   0  0  0  0  0  0  0  0  0  0  0  0
   -5.8448   -0.2070   -0.7237 H   0  0  0  0  0  0  0  0  0  0  0  0
   -4.7813   -1.6283   -0.5246 H   0  0  0  0  0  0  0  0  0  0  0  0
   -2.1165    0.5357   -0.1587 H   0  0  0  0  0  0  0  0  0  0  0  0
   -3.6321    0.0690    4.3595 H   0  0  0  0  0  0  0  0  0  0  0  0
   -4.9444   -0.4989    3.2558 H   0  0  0  0  0  0  0  0  0  0  0  0
   -3.4851   -1.5337    3.5280 H   0  0  0  0  0  0  0  0  0  0  0  0
   -2.8559    2.5777    0.8746 H   0  0  0  0  0  0  0  0  0  0  0  0
   -4.9189    3.7982    0.2852 H   0  0  0  0  0  0  0  0  0  0  0  0
   -5.2399    2.2354    1.1055 H   0  0  0  0  0  0  0  0  0  0  0  0
   -5.5005    2.3831   -0.6702 H   0  0  0  0  0  0  0  0  0  0  0  0
    2.5555    0.5942   -3.9106 H   0  0  0  0  0  0  0  0  0  0  0  0
    2.9475   -2.7063   -5.6215 H   0  0  0  0  0  0  0  0  0  0  0  0
    4.1351   -1.3621   -5.8557 H   0  0  0  0  0  0  0  0  0  0  0  0
    2.3608   -1.0165   -5.7962 H   0  0  0  0  0  0  0  0  0  0  0  0
    4.0485   -3.4540   -3.5149 H   0  0  0  0  0  0  0  0  0  0  0  0
    4.2166   -3.1341   -1.0840 H   0  0  0  0  0  0  0  0  0  0  0  0
  1  2  1  0
  2  3  1  0
  3  4  1  0
  4  5  2  0
  5  6  1  0
  6  7  1  0
  7  8  1  1
  7  9  1  0
  9 10  1  0
 10 11  2  0
 11 12  1  0
 11 13  1  0
 13 14  1  0
 13 15  2  0
 15 16  1  0
 16 17  1  0
 16 18  2  0
 18 19  1  0
 19 20  1  0
 20 21  2  0
 20 22  1  0
 22 23  1  0
 22 24  2  0
 24 25  1  0
 25 26  2  0
 26 27  1  0
 27 28  1  0
 27 29  1  0
 29 30  1  0
 29 31  1  0
 31 32  1  0
 31 33  1  0
 33 34  1  0
 33 35  1  0
 35 36  1  0
 35 37  1  0
 37 38  1  0
 38 39  1  0
 39 40  1  0
 39 41  2  0
 37 42  1  0
 42 43  1  0
 18 44  1  0
 44 45  2  0
 45 46  1  0
 46 47  2  0
 47 48  1  0
 48 49  2  0
 49 50  1  0
 49 51  1  0
 51 52  2  0
 52 53  1  0
 45 54  1  0
 54 55  2  0
 55 56  1  0
 56 57  2  0
 42  3  1  0
 53 44  1  0
 56  7  1  0
 55 10  1  0
 54 15  1  0
 53 47  1  0
  1 58  1  0
  1 59  1  0
  1 60  1  0
  3 61  1  6
  4 62  1  0
  5 63  1  0
  8 64  1  0
  8 65  1  0
  8 66  1  0
 12 67  1  0
 12 68  1  0
 12 69  1  0
 14 70  1  0
 17 71  1  0
 19 72  1  0
 23 73  1  0
 23 74  1  0
 23 75  1  0
 24 76  1  0
 25 77  1  0
 26 78  1  0
 27 79  1  6
 28 80  1  0
 28 81  1  0
 28 82  1  0
 29 83  1  1
 30 84  1  0
 31 85  1  6
 32 86  1  0
 32 87  1  0
 32 88  1  0
 33 89  1  6
 34 90  1  0
 35 91  1  6
 36 92  1  0
 36 93  1  0
 36 94  1  0
 37 95  1  6
 40 96  1  0
 40 97  1  0
 40 98  1  0
 42 99  1  1
 43100  1  0
 43101  1  0
 43102  1  0
 48103  1  0
 50104  1  0
 50105  1  0
 50106  1  0
 51107  1  0
 52108  1  0
M  END
$$$$
