
     RDKit          3D

 39 41  0  0  0  0  0  0  0  0999 V2000
    3.5836    2.9937    0.9301 C   0  0  0  0  0  0  0  0  0  0  0  0
    3.2224    1.7949    0.1215 C   0  0  0  0  0  0  0  0  0  0  0  0
    2.6718    1.9436   -1.0036 O   0  0  0  0  0  0  0  0  0  0  0  0
    3.5444    0.5187    0.5976 O   0  0  0  0  0  0  0  0  0  0  0  0
    3.1832   -0.6544   -0.0740 C   0  0  0  0  0  0  0  0  0  0  0  0
    4.2058   -1.4448   -0.6074 C   0  0  0  0  0  0  0  0  0  0  0  0
    3.9050   -2.5882   -1.3435 C   0  0  0  0  0  0  0  0  0  0  0  0
    2.5771   -2.9535   -1.5563 C   0  0  0  0  0  0  0  0  0  0  0  0
    1.5308   -2.1909   -1.0079 C   0  0  0  0  0  0  0  0  0  0  0  0
    1.8287   -1.0492   -0.2304 C   0  0  0  0  0  0  0  0  0  0  0  0
    0.7159   -0.3274    0.4428 C   0  0  0  0  0  0  0  0  0  0  0  0
    0.9685    0.4776    1.3795 O   0  0  0  0  0  0  0  0  0  0  0  0
   -0.6971   -0.6081    0.0683 C   0  0  0  0  0  0  0  0  0  0  0  0
   -1.7562    0.2195    0.5102 C   0  0  0  0  0  0  0  0  0  0  0  0
   -1.4757    1.3445    1.3031 O   0  0  0  0  0  0  0  0  0  0  0  0
   -2.1999    2.5434    1.2927 C   0  0  0  0  0  0  0  0  0  0  0  0
   -1.9439    3.5573    2.3550 C   0  0  0  0  0  0  0  0  0  0  0  0
   -2.9883    2.8190    0.3480 O   0  0  0  0  0  0  0  0  0  0  0  0
   -3.0816   -0.1113    0.1783 C   0  0  0  0  0  0  0  0  0  0  0  0
   -3.3690   -1.2268   -0.6191 C   0  0  0  0  0  0  0  0  0  0  0  0
   -2.3128   -2.0235   -1.0830 C   0  0  0  0  0  0  0  0  0  0  0  0
   -0.9818   -1.7248   -0.7463 C   0  0  0  0  0  0  0  0  0  0  0  0
    0.1216   -2.5790   -1.2455 C   0  0  0  0  0  0  0  0  0  0  0  0
   -0.1398   -3.6334   -1.8882 O   0  0  0  0  0  0  0  0  0  0  0  0
   -4.7712   -1.5573   -0.9626 C   0  0  0  0  0  0  0  0  0  0  0  0
   -5.8143   -0.7566   -0.5041 O   0  0  0  0  0  0  0  0  0  0  0  0
   -5.0348   -2.5651   -1.6731 O   0  0  0  0  0  0  0  0  0  0  0  0
    3.6910    2.7118    1.9984 H   0  0  0  0  0  0  0  0  0  0  0  0
    4.5446    3.4110    0.5644 H   0  0  0  0  0  0  0  0  0  0  0  0
    2.7899    3.7653    0.8416 H   0  0  0  0  0  0  0  0  0  0  0  0
    5.2400   -1.1549   -0.4704 H   0  0  0  0  0  0  0  0  0  0  0  0
    4.7040   -3.1852   -1.7642 H   0  0  0  0  0  0  0  0  0  0  0  0
    2.3695   -3.8361   -2.1484 H   0  0  0  0  0  0  0  0  0  0  0  0
   -1.6210    3.0518    3.2891 H   0  0  0  0  0  0  0  0  0  0  0  0
   -2.8684    4.1366    2.5620 H   0  0  0  0  0  0  0  0  0  0  0  0
   -1.1438    4.2495    2.0199 H   0  0  0  0  0  0  0  0  0  0  0  0
   -3.8934    0.4891    0.5663 H   0  0  0  0  0  0  0  0  0  0  0  0
   -2.5276   -2.8826   -1.7068 H   0  0  0  0  0  0  0  0  0  0  0  0
   -6.7768   -0.9739   -0.7337 H   0  0  0  0  0  0  0  0  0  0  0  0
  1  2  1  0
  2  3  2  0
  2  4  1  0
  4  5  1  0
  5  6  2  0
  6  7  1  0
  7  8  2  0
  8  9  1  0
  9 10  2  0
 10 11  1  0
 11 12  2  0
 11 13  1  0
 13 14  2  0
 14 15  1  0
 15 16  1  0
 16 17  1  0
 16 18  2  0
 14 19  1  0
 19 20  2  0
 20 21  1  0
 21 22  2  0
 22 23  1  0
 23 24  2  0
 20 25  1  0
 25 26  1  0
 25 27  2  0
 10  5  1  0
 22 13  1  0
 23  9  1  0
  1 28  1  0
  1 29  1  0
  1 30  1  0
  6 31  1  0
  7 32  1  0
  8 33  1  0
 17 34  1  0
 17 35  1  0
 17 36  1  0
 19 37  1  0
 21 38  1  0
 26 39  1  0
M  END
$$$$
