
     RDKit          3D

 91 95  0  0  0  0  0  0  0  0999 V2000
   -4.7968    1.1862    1.5198 C   0  0  2  0  0  0  0  0  0  0  0  0
   -4.3737    0.4788    2.6957 O   0  0  0  0  0  0  0  0  0  0  0  0
   -5.2657   -0.5314    2.9944 C   0  0  0  0  0  0  0  0  0  0  0  0
   -5.1011   -1.5595    3.9225 C   0  0  0  0  0  0  0  0  0  0  0  0
   -4.0006   -1.5322    4.7899 O   0  0  0  0  0  0  0  0  0  0  0  0
   -3.7272   -2.5343    5.7630 C   0  0  0  0  0  0  0  0  0  0  0  0
   -6.0570   -2.6061    3.9153 C   0  0  0  0  0  0  0  0  0  0  0  0
   -7.0881   -2.6224    2.9502 C   0  0  0  0  0  0  0  0  0  0  0  0
   -7.2124   -1.5630    2.0320 C   0  0  0  0  0  0  0  0  0  0  0  0
   -6.3371   -0.4906    2.1587 C   0  0  0  0  0  0  0  0  0  0  0  0
   -6.2552    0.6767    1.2418 C   0  0  1  0  0  0  0  0  0  0  0  0
   -7.3067    1.7399    1.6633 C   0  0  0  0  0  0  0  0  0  0  0  0
   -8.7535    1.2486    1.4639 C   0  0  0  0  0  0  0  0  0  0  0  0
   -8.9388    0.6615    0.1209 N   0  0  0  0  0  0  0  0  0  0  0  0
  -10.3445    0.2968   -0.1208 C   0  0  0  0  0  0  0  0  0  0  0  0
   -7.9786   -0.4347   -0.1750 C   0  0  2  0  0  0  0  0  0  0  0  0
   -8.1146   -1.6503    0.8208 C   0  0  0  0  0  0  0  0  0  0  0  0
   -6.5375    0.1885   -0.2049 C   0  0  1  0  0  0  0  0  0  0  0  0
   -6.5273    1.3095   -1.0633 O   0  0  0  0  0  0  0  0  0  0  0  0
   -5.4532   -0.8231   -0.6978 C   0  0  0  0  0  0  0  0  0  0  0  0
   -4.0219   -0.5269   -0.1903 C   0  0  0  0  0  0  0  0  0  0  0  0
   -3.8312    0.9020    0.3449 C   0  0  2  0  0  0  0  0  0  0  0  0
   -2.4891    1.0373    0.7850 O   0  0  0  0  0  0  0  0  0  0  0  0
   -1.9894    2.3422    0.5547 C   0  0  0  0  0  0  0  0  0  0  0  0
   -1.3070    2.4232   -0.8098 C   0  0  0  0  0  0  0  0  0  0  0  0
   -0.2913    1.4451   -0.8824 O   0  0  0  0  0  0  0  0  0  0  0  0
    0.3184    1.4922   -2.1550 C   0  0  0  0  0  0  0  0  0  0  0  0
    1.4221    0.4447   -2.2243 C   0  0  0  0  0  0  0  0  0  0  0  0
    2.4010    0.7297   -1.2460 O   0  0  0  0  0  0  0  0  0  0  0  0
    3.5009   -0.1523   -1.3707 C   0  0  0  0  0  0  0  0  0  0  0  0
    4.6301    0.5212   -2.1539 C   0  0  0  0  0  0  0  0  0  0  0  0
    5.7383   -0.3528   -2.2674 O   0  0  0  0  0  0  0  0  0  0  0  0
    6.6812   -0.1304   -1.2347 C   0  0  0  0  0  0  0  0  0  0  0  0
    7.7572    0.8478   -1.6994 C   0  0  0  0  0  0  0  0  0  0  0  0
    8.7216    0.9930   -0.6784 O   0  0  0  0  0  0  0  0  0  0  0  0
    9.8039    1.7935   -1.1194 C   0  0  0  0  0  0  0  0  0  0  0  0
   11.0440    0.9273   -1.3161 C   0  0  0  0  0  0  0  0  0  0  0  0
   10.8316    0.0387   -2.3938 O   0  0  0  0  0  0  0  0  0  0  0  0
   11.8608   -0.9304   -2.4503 C   0  0  0  0  0  0  0  0  0  0  0  0
   11.4101   -2.2171   -1.7546 C   0  0  0  0  0  0  0  0  0  0  0  0
   12.3772   -3.2350   -1.9322 O   0  0  0  0  0  0  0  0  0  0  0  0
   13.2304   -3.3037   -0.8107 C   0  0  0  0  0  0  0  0  0  0  0  0
   -4.7823    2.2768    1.7356 H   0  0  0  0  0  0  0  0  0  0  0  0
   -4.5650   -2.5998    6.4890 H   0  0  0  0  0  0  0  0  0  0  0  0
   -2.8014   -2.2645    6.3112 H   0  0  0  0  0  0  0  0  0  0  0  0
   -3.5741   -3.5160    5.2670 H   0  0  0  0  0  0  0  0  0  0  0  0
   -5.9782   -3.4350    4.6052 H   0  0  0  0  0  0  0  0  0  0  0  0
   -7.7544   -3.4737    2.8922 H   0  0  0  0  0  0  0  0  0  0  0  0
   -7.1589    2.6632    1.0613 H   0  0  0  0  0  0  0  0  0  0  0  0
   -7.1654    2.0194    2.7310 H   0  0  0  0  0  0  0  0  0  0  0  0
   -9.0205    0.5180    2.2585 H   0  0  0  0  0  0  0  0  0  0  0  0
   -9.4309    2.1225    1.5841 H   0  0  0  0  0  0  0  0  0  0  0  0
  -10.7638   -0.3093    0.7099 H   0  0  0  0  0  0  0  0  0  0  0  0
  -10.4506   -0.2627   -1.0747 H   0  0  0  0  0  0  0  0  0  0  0  0
  -10.9523    1.2217   -0.2125 H   0  0  0  0  0  0  0  0  0  0  0  0
   -8.1902   -0.8199   -1.1983 H   0  0  0  0  0  0  0  0  0  0  0  0
   -9.1588   -1.7897    1.1609 H   0  0  0  0  0  0  0  0  0  0  0  0
   -7.8498   -2.5789    0.2708 H   0  0  0  0  0  0  0  0  0  0  0  0
   -6.8404    1.0147   -1.9584 H   0  0  0  0  0  0  0  0  0  0  0  0
   -5.4457   -0.8393   -1.8096 H   0  0  0  0  0  0  0  0  0  0  0  0
   -5.7080   -1.8583   -0.3911 H   0  0  0  0  0  0  0  0  0  0  0  0
   -3.3006   -0.7005   -1.0188 H   0  0  0  0  0  0  0  0  0  0  0  0
   -3.7629   -1.2506    0.6140 H   0  0  0  0  0  0  0  0  0  0  0  0
   -4.0689    1.5947   -0.4969 H   0  0  0  0  0  0  0  0  0  0  0  0
   -2.7694    3.1338    0.6448 H   0  0  0  0  0  0  0  0  0  0  0  0
   -1.2324    2.5619    1.3371 H   0  0  0  0  0  0  0  0  0  0  0  0
   -0.8758    3.4442   -0.9212 H   0  0  0  0  0  0  0  0  0  0  0  0
   -2.0713    2.2640   -1.6039 H   0  0  0  0  0  0  0  0  0  0  0  0
    0.7703    2.4933   -2.3435 H   0  0  0  0  0  0  0  0  0  0  0  0
   -0.4237    1.2667   -2.9549 H   0  0  0  0  0  0  0  0  0  0  0  0
    0.9713   -0.5573   -2.0413 H   0  0  0  0  0  0  0  0  0  0  0  0
    1.8602    0.4688   -3.2481 H   0  0  0  0  0  0  0  0  0  0  0  0
    3.2421   -1.1319   -1.8398 H   0  0  0  0  0  0  0  0  0  0  0  0
    3.8657   -0.3837   -0.3482 H   0  0  0  0  0  0  0  0  0  0  0  0
    4.2679    0.7420   -3.1795 H   0  0  0  0  0  0  0  0  0  0  0  0
    4.8860    1.5051   -1.6947 H   0  0  0  0  0  0  0  0  0  0  0  0
    7.1695   -1.1014   -1.0051 H   0  0  0  0  0  0  0  0  0  0  0  0
    6.2205    0.2228   -0.2821 H   0  0  0  0  0  0  0  0  0  0  0  0
    8.2182    0.4440   -2.6298 H   0  0  0  0  0  0  0  0  0  0  0  0
    7.2834    1.8308   -1.9185 H   0  0  0  0  0  0  0  0  0  0  0  0
   10.0235    2.5381   -0.3252 H   0  0  0  0  0  0  0  0  0  0  0  0
    9.6009    2.3766   -2.0504 H   0  0  0  0  0  0  0  0  0  0  0  0
   11.9073    1.5929   -1.5414 H   0  0  0  0  0  0  0  0  0  0  0  0
   11.2440    0.3811   -0.3652 H   0  0  0  0  0  0  0  0  0  0  0  0
   12.8307   -0.5742   -2.0289 H   0  0  0  0  0  0  0  0  0  0  0  0
   12.0519   -1.1614   -3.5198 H   0  0  0  0  0  0  0  0  0  0  0  0
   11.1626   -2.0175   -0.6849 H   0  0  0  0  0  0  0  0  0  0  0  0
   10.4665   -2.5575   -2.2319 H   0  0  0  0  0  0  0  0  0  0  0  0
   12.6740   -3.6538    0.0866 H   0  0  0  0  0  0  0  0  0  0  0  0
   13.7186   -2.3252   -0.6065 H   0  0  0  0  0  0  0  0  0  0  0  0
   14.0313   -4.0421   -1.0198 H   0  0  0  0  0  0  0  0  0  0  0  0
  1  2  1  0
  2  3  1  0
  3  4  2  0
  4  5  1  0
  5  6  1  0
  4  7  1  0
  7  8  2  0
  8  9  1  0
  9 10  2  0
 10 11  1  0
 11 12  1  1
 12 13  1  0
 13 14  1  0
 14 15  1  0
 14 16  1  0
 16 17  1  0
 16 18  1  0
 18 19  1  6
 18 20  1  0
 20 21  1  0
 21 22  1  0
 22 23  1  0
 23 24  1  0
 24 25  1  0
 25 26  1  0
 26 27  1  0
 27 28  1  0
 28 29  1  0
 29 30  1  0
 30 31  1  0
 31 32  1  0
 32 33  1  0
 33 34  1  0
 34 35  1  0
 35 36  1  0
 36 37  1  0
 37 38  1  0
 38 39  1  0
 39 40  1  0
 40 41  1  0
 41 42  1  0
 11  1  1  0
 18 11  1  0
 22  1  1  0
 10  3  1  0
 17  9  1  0
  1 43  1  1
  6 44  1  0
  6 45  1  0
  6 46  1  0
  7 47  1  0
  8 48  1  0
 12 49  1  0
 12 50  1  0
 13 51  1  0
 13 52  1  0
 15 53  1  0
 15 54  1  0
 15 55  1  0
 16 56  1  6
 17 57  1  0
 17 58  1  0
 19 59  1  0
 20 60  1  0
 20 61  1  0
 21 62  1  0
 21 63  1  0
 22 64  1  6
 24 65  1  0
 24 66  1  0
 25 67  1  0
 25 68  1  0
 27 69  1  0
 27 70  1  0
 28 71  1  0
 28 72  1  0
 30 73  1  0
 30 74  1  0
 31 75  1  0
 31 76  1  0
 33 77  1  0
 33 78  1  0
 34 79  1  0
 34 80  1  0
 36 81  1  0
 36 82  1  0
 37 83  1  0
 37 84  1  0
 39 85  1  0
 39 86  1  0
 40 87  1  0
 40 88  1  0
 42 89  1  0
 42 90  1  0
 42 91  1  0
M  END
$$$$
