
     RDKit          3D

 38 39  0  0  0  0  0  0  0  0999 V2000
   -3.2628   -0.6853    2.2853 C   0  0  0  0  0  0  0  0  0  0  0  0
   -3.2401   -1.1855    0.8673 C   0  0  0  0  0  0  0  0  0  0  0  0
   -2.2213   -0.7979   -0.0085 C   0  0  0  0  0  0  0  0  0  0  0  0
   -2.1999   -1.2400   -1.3038 N   0  0  0  0  0  0  0  0  0  0  0  0
   -1.1254   -0.7989   -2.2171 C   0  0  2  0  0  0  0  0  0  0  0  0
    0.1087   -0.6634   -1.5320 O   0  0  0  0  0  0  0  0  0  0  0  0
    0.6280    0.6086   -1.8798 C   0  0  2  0  0  0  0  0  0  0  0  0
    1.0428    1.3774   -0.6246 C   0  0  0  0  0  0  0  0  0  0  0  0
    1.9849    0.6136    0.0913 O   0  0  0  0  0  0  0  0  0  0  0  0
    2.4237    1.4691    1.5028 P   0  0  1  0  0  5  0  0  0  0  0  0
    3.1245    2.9611    1.1057 O   0  0  0  0  0  0  0  0  0  0  0  0
    1.1907    1.7235    2.3411 O   0  0  0  0  0  0  0  0  0  0  0  0
    3.4989    0.5270    2.4283 O   0  0  0  0  0  0  0  0  0  0  0  0
    4.9544    0.3780    1.5565 P   0  0  0  0  0  5  0  0  0  0  0  0
    5.9465   -0.7366    2.3541 O   0  0  0  0  0  0  0  0  0  0  0  0
    5.7553    1.8683    1.5014 O   0  0  0  0  0  0  0  0  0  0  0  0
    4.6989   -0.1178    0.1496 O   0  0  0  0  0  0  0  0  0  0  0  0
   -0.4388    1.3301   -2.6175 C   0  0  0  0  0  0  0  0  0  0  0  0
   -1.4498    0.5241   -2.8028 C   0  0  0  0  0  0  0  0  0  0  0  0
   -3.2211   -2.0360   -1.7609 C   0  0  0  0  0  0  0  0  0  0  0  0
   -3.2451   -2.4235   -2.9619 O   0  0  0  0  0  0  0  0  0  0  0  0
   -4.2266   -2.4130   -0.9249 N   0  0  0  0  0  0  0  0  0  0  0  0
   -4.2584   -2.0062    0.3705 C   0  0  0  0  0  0  0  0  0  0  0  0
   -5.2096   -2.3676    1.1157 O   0  0  0  0  0  0  0  0  0  0  0  0
   -2.2887   -0.2341    2.5711 H   0  0  0  0  0  0  0  0  0  0  0  0
   -3.4689   -1.5247    2.9825 H   0  0  0  0  0  0  0  0  0  0  0  0
   -4.0571    0.0825    2.3943 H   0  0  0  0  0  0  0  0  0  0  0  0
   -1.4444   -0.1396    0.3561 H   0  0  0  0  0  0  0  0  0  0  0  0
   -0.9769   -1.5313   -3.0409 H   0  0  0  0  0  0  0  0  0  0  0  0
    1.5094    0.4761   -2.5448 H   0  0  0  0  0  0  0  0  0  0  0  0
    1.4856    2.3484   -0.9427 H   0  0  0  0  0  0  0  0  0  0  0  0
    0.1376    1.5728   -0.0067 H   0  0  0  0  0  0  0  0  0  0  0  0
    3.5748    2.8135    0.2361 H   0  0  0  0  0  0  0  0  0  0  0  0
    5.3983   -1.5587    2.4227 H   0  0  0  0  0  0  0  0  0  0  0  0
    6.6038    1.6820    1.0259 H   0  0  0  0  0  0  0  0  0  0  0  0
   -0.3844    2.3495   -2.9858 H   0  0  0  0  0  0  0  0  0  0  0  0
   -2.3526    0.7767   -3.3492 H   0  0  0  0  0  0  0  0  0  0  0  0
   -4.9950   -3.0222   -1.2890 H   0  0  0  0  0  0  0  0  0  0  0  0
  1  2  1  0
  2  3  2  0
  3  4  1  0
  4  5  1  0
  5  6  1  0
  6  7  1  0
  7  8  1  0
  8  9  1  0
 10  9  1  6
 10 11  1  0
 10 12  2  0
 10 13  1  0
 13 14  1  0
 14 15  1  0
 14 16  1  0
 14 17  2  0
  7 18  1  0
 18 19  2  0
  4 20  1  0
 20 21  2  0
 20 22  1  0
 22 23  1  0
 23 24  2  0
 23  2  1  0
 19  5  1  0
  1 25  1  0
  1 26  1  0
  1 27  1  0
  3 28  1  0
  5 29  1  6
  7 30  1  6
  8 31  1  0
  8 32  1  0
 11 33  1  0
 15 34  1  0
 16 35  1  0
 18 36  1  0
 19 37  1  0
 22 38  1  0
M  END
$$$$
