
     RDKit          3D

 42 43  0  0  0  0  0  0  0  0999 V2000
   -5.2300    1.0473    2.5265 C   0  0  0  0  0  0  0  0  0  0  0  0
   -4.4715    0.7664    1.3792 O   0  0  0  0  0  0  0  0  0  0  0  0
   -4.4788   -0.5888    1.2423 N   0  0  0  0  0  0  0  0  0  0  0  0
   -3.1543   -1.0460    0.7916 C   0  0  1  0  0  0  0  0  0  0  0  0
   -2.6676   -0.3291   -0.4705 C   0  0  0  0  0  0  0  0  0  0  0  0
   -1.4738    0.4896    0.0169 C   0  0  1  0  0  0  0  0  0  0  0  0
   -0.8949   -0.2279    1.1706 N   0  0  0  0  0  0  0  0  0  0  0  0
   -2.0686   -0.7977    1.8509 C   0  0  0  0  0  0  0  0  0  0  0  0
    0.2205   -1.5161    0.7204 S   0  0  0  0  0  6  0  0  0  0  0  0
   -0.3353   -2.3244   -0.4191 O   0  0  0  0  0  0  0  0  0  0  0  0
    0.4487   -2.4344    1.8891 O   0  0  0  0  0  0  0  0  0  0  0  0
    1.7866   -0.8440    0.2762 C   0  0  0  0  0  0  0  0  0  0  0  0
    2.3694   -1.1383   -0.9639 C   0  0  0  0  0  0  0  0  0  0  0  0
    3.6056   -0.5845   -1.3099 C   0  0  0  0  0  0  0  0  0  0  0  0
    4.2778    0.2675   -0.4124 C   0  0  0  0  0  0  0  0  0  0  0  0
    5.5180    0.8499   -0.7132 O   0  0  0  0  0  0  0  0  0  0  0  0
    6.2220    0.6543   -1.9353 C   0  0  0  0  0  0  0  0  0  0  0  0
    3.6939    0.5491    0.8285 C   0  0  0  0  0  0  0  0  0  0  0  0
    2.4572   -0.0035    1.1728 C   0  0  0  0  0  0  0  0  0  0  0  0
   -0.4614    0.9284   -1.0236 C   0  0  0  0  0  0  0  0  0  0  0  0
    0.4787    1.6852   -0.6593 O   0  0  0  0  0  0  0  0  0  0  0  0
   -0.5682    0.5743   -2.4090 N   0  0  0  0  0  0  0  0  0  0  0  0
    0.4011    0.9437   -3.2800 O   0  0  0  0  0  0  0  0  0  0  0  0
   -4.7828    0.5681    3.4257 H   0  0  0  0  0  0  0  0  0  0  0  0
   -5.2368    2.1444    2.6899 H   0  0  0  0  0  0  0  0  0  0  0  0
   -6.2826    0.7114    2.3952 H   0  0  0  0  0  0  0  0  0  0  0  0
   -5.1712   -0.8197    0.4914 H   0  0  0  0  0  0  0  0  0  0  0  0
   -3.2091   -2.1399    0.5897 H   0  0  0  0  0  0  0  0  0  0  0  0
   -2.3646   -1.0958   -1.2121 H   0  0  0  0  0  0  0  0  0  0  0  0
   -3.4426    0.3215   -0.9320 H   0  0  0  0  0  0  0  0  0  0  0  0
   -1.8966    1.4423    0.4120 H   0  0  0  0  0  0  0  0  0  0  0  0
   -1.8418   -1.7316    2.4081 H   0  0  0  0  0  0  0  0  0  0  0  0
   -2.4132   -0.0644    2.6111 H   0  0  0  0  0  0  0  0  0  0  0  0
    1.8672   -1.7886   -1.6680 H   0  0  0  0  0  0  0  0  0  0  0  0
    4.0282   -0.8237   -2.2761 H   0  0  0  0  0  0  0  0  0  0  0  0
    7.1687    1.2315   -1.9047 H   0  0  0  0  0  0  0  0  0  0  0  0
    5.6119    1.0167   -2.7896 H   0  0  0  0  0  0  0  0  0  0  0  0
    6.4652   -0.4211   -2.0679 H   0  0  0  0  0  0  0  0  0  0  0  0
    4.2005    1.2017    1.5281 H   0  0  0  0  0  0  0  0  0  0  0  0
    2.0180    0.2296    2.1346 H   0  0  0  0  0  0  0  0  0  0  0  0
   -1.4132    0.0973   -2.7892 H   0  0  0  0  0  0  0  0  0  0  0  0
    1.0198    0.1703   -3.3148 H   0  0  0  0  0  0  0  0  0  0  0  0
  1  2  1  0
  2  3  1  0
  3  4  1  0
  4  5  1  0
  5  6  1  0
  6  7  1  0
  7  8  1  0
  7  9  1  0
  9 10  2  0
  9 11  2  0
  9 12  1  0
 12 13  2  0
 13 14  1  0
 14 15  2  0
 15 16  1  0
 16 17  1  0
 15 18  1  0
 18 19  2  0
  6 20  1  0
 20 21  2  0
 20 22  1  0
 22 23  1  0
  8  4  1  0
 19 12  1  0
  1 24  1  0
  1 25  1  0
  1 26  1  0
  3 27  1  0
  4 28  1  6
  5 29  1  0
  5 30  1  0
  6 31  1  1
  8 32  1  0
  8 33  1  0
 13 34  1  0
 14 35  1  0
 17 36  1  0
 17 37  1  0
 17 38  1  0
 18 39  1  0
 19 40  1  0
 22 41  1  0
 23 42  1  0
M  END
$$$$
