
     RDKit          3D

 55 58  0  0  0  0  0  0  0  0999 V2000
   -1.3473    0.4381   -0.4935 C   0  0  2  0  0  0  0  0  0  0  0  0
   -2.3725    1.5047   -0.8742 C   0  0  0  0  0  0  0  0  0  0  0  0
   -3.7439    0.8116   -0.8033 C   0  0  0  0  0  0  0  0  0  0  0  0
   -3.5174   -0.6101   -0.2335 C   0  0  2  0  0  0  0  0  0  0  0  0
   -3.5740   -1.6441   -1.3879 C   0  0  0  0  0  0  0  0  0  0  0  0
   -4.5472   -0.9102    0.6807 O   0  0  0  0  0  0  0  0  0  0  0  0
   -2.1199   -0.4902    0.4693 C   0  0  2  0  0  0  0  0  0  0  0  0
   -2.3269    0.1464    1.8878 C   0  0  0  0  0  0  0  0  0  0  0  0
   -1.3248   -1.8083    0.6148 C   0  0  0  0  0  0  0  0  0  0  0  0
    0.1087   -1.5519    1.1180 C   0  0  0  0  0  0  0  0  0  0  0  0
    0.8757   -0.5098    0.2485 C   0  0  1  0  0  0  0  0  0  0  0  0
    0.0629    0.8408    0.0512 C   0  0  1  0  0  0  0  0  0  0  0  0
    0.8409    1.8498   -0.8805 C   0  0  1  0  0  0  0  0  0  0  0  0
    0.2123    3.2605   -0.9095 C   0  0  0  0  0  0  0  0  0  0  0  0
    2.3165    2.0173   -0.4459 C   0  0  0  0  0  0  0  0  0  0  0  0
    2.9637    0.6719   -0.3077 C   0  0  0  0  0  0  0  0  0  0  0  0
    3.7604    0.2338   -1.3033 C   0  0  0  0  0  0  0  0  0  0  0  0
    4.1237   -1.1834   -1.4422 C   0  0  0  0  0  0  0  0  0  0  0  0
    4.9049   -1.5419   -2.3627 O   0  0  0  0  0  0  0  0  0  0  0  0
    3.5045   -2.2086   -0.5483 C   0  0  0  0  0  0  0  0  0  0  0  0
    3.2090   -1.5841    0.8137 C   0  0  0  0  0  0  0  0  0  0  0  0
    2.3566   -0.2735    0.7239 C   0  0  2  0  0  0  0  0  0  0  0  0
    2.4102    0.3694    2.1368 C   0  0  0  0  0  0  0  0  0  0  0  0
   -1.1468   -0.1174   -1.4385 H   0  0  0  0  0  0  0  0  0  0  0  0
   -2.2037    1.8624   -1.9118 H   0  0  0  0  0  0  0  0  0  0  0  0
   -2.3401    2.3565   -0.1612 H   0  0  0  0  0  0  0  0  0  0  0  0
   -4.2233    0.7923   -1.8074 H   0  0  0  0  0  0  0  0  0  0  0  0
   -4.4123    1.3981   -0.1343 H   0  0  0  0  0  0  0  0  0  0  0  0
   -4.5724   -1.6098   -1.8744 H   0  0  0  0  0  0  0  0  0  0  0  0
   -3.4372   -2.6759   -1.0017 H   0  0  0  0  0  0  0  0  0  0  0  0
   -2.8095   -1.4441   -2.1658 H   0  0  0  0  0  0  0  0  0  0  0  0
   -4.3532   -1.8062    1.0627 H   0  0  0  0  0  0  0  0  0  0  0  0
   -2.9108    1.0883    1.8351 H   0  0  0  0  0  0  0  0  0  0  0  0
   -2.8783   -0.5552    2.5487 H   0  0  0  0  0  0  0  0  0  0  0  0
   -1.3857    0.3794    2.4165 H   0  0  0  0  0  0  0  0  0  0  0  0
   -1.2399   -2.3281   -0.3631 H   0  0  0  0  0  0  0  0  0  0  0  0
   -1.8474   -2.4958    1.3148 H   0  0  0  0  0  0  0  0  0  0  0  0
    0.6239   -2.5320    1.0745 H   0  0  0  0  0  0  0  0  0  0  0  0
    0.0928   -1.2469    2.1825 H   0  0  0  0  0  0  0  0  0  0  0  0
    0.9445   -0.9690   -0.7638 H   0  0  0  0  0  0  0  0  0  0  0  0
   -0.0641    1.3491    1.0234 H   0  0  0  0  0  0  0  0  0  0  0  0
    0.8381    1.4477   -1.9185 H   0  0  0  0  0  0  0  0  0  0  0  0
    0.9493    4.0245   -1.2390 H   0  0  0  0  0  0  0  0  0  0  0  0
   -0.6069    3.3249   -1.6465 H   0  0  0  0  0  0  0  0  0  0  0  0
   -0.1548    3.5559    0.0962 H   0  0  0  0  0  0  0  0  0  0  0  0
    2.8592    2.6419   -1.1909 H   0  0  0  0  0  0  0  0  0  0  0  0
    2.3771    2.5665    0.5168 H   0  0  0  0  0  0  0  0  0  0  0  0
    4.0986    0.9184   -2.0724 H   0  0  0  0  0  0  0  0  0  0  0  0
    4.2044   -3.0618   -0.4144 H   0  0  0  0  0  0  0  0  0  0  0  0
    2.5736   -2.5966   -1.0115 H   0  0  0  0  0  0  0  0  0  0  0  0
    2.7467   -2.3385    1.4810 H   0  0  0  0  0  0  0  0  0  0  0  0
    4.1920   -1.3451    1.2808 H   0  0  0  0  0  0  0  0  0  0  0  0
    3.4450    0.7044    2.3662 H   0  0  0  0  0  0  0  0  0  0  0  0
    2.1168   -0.3643    2.9171 H   0  0  0  0  0  0  0  0  0  0  0  0
    1.7482    1.2479    2.2471 H   0  0  0  0  0  0  0  0  0  0  0  0
  1  2  1  0
  2  3  1  0
  3  4  1  0
  4  5  1  0
  4  6  1  1
  4  7  1  0
  7  8  1  1
  7  9  1  0
  9 10  1  0
 10 11  1  0
 11 12  1  0
 12 13  1  0
 13 14  1  0
 13 15  1  0
 15 16  1  0
 16 17  2  0
 17 18  1  0
 18 19  2  0
 18 20  1  0
 20 21  1  0
 21 22  1  0
 22 23  1  1
  7  1  1  0
 22 11  1  0
 12  1  1  0
 22 16  1  0
  1 24  1  6
  2 25  1  0
  2 26  1  0
  3 27  1  0
  3 28  1  0
  5 29  1  0
  5 30  1  0
  5 31  1  0
  6 32  1  0
  8 33  1  0
  8 34  1  0
  8 35  1  0
  9 36  1  0
  9 37  1  0
 10 38  1  0
 10 39  1  0
 11 40  1  6
 12 41  1  1
 13 42  1  6
 14 43  1  0
 14 44  1  0
 14 45  1  0
 15 46  1  0
 15 47  1  0
 17 48  1  0
 20 49  1  0
 20 50  1  0
 21 51  1  0
 21 52  1  0
 23 53  1  0
 23 54  1  0
 23 55  1  0
M  END
$$$$
