
     RDKit          3D

 35 36  0  0  0  0  0  0  0  0999 V2000
   -3.5527    4.1617   -1.6978 C   0  0  0  0  0  0  0  0  0  0  0  0
   -2.9970    3.0238   -2.3460 O   0  0  0  0  0  0  0  0  0  0  0  0
   -2.3558    1.9951   -1.6498 C   0  0  0  0  0  0  0  0  0  0  0  0
   -2.2329    2.0395   -0.2945 N   0  0  0  0  0  0  0  0  0  0  0  0
   -1.6099    1.0435    0.3869 C   0  0  0  0  0  0  0  0  0  0  0  0
   -1.4923    1.1290    1.7762 O   0  0  0  0  0  0  0  0  0  0  0  0
   -0.7949    0.1577    2.5476 C   0  0  0  0  0  0  0  0  0  0  0  0
   -1.1042   -0.0226   -0.2899 N   0  0  0  0  0  0  0  0  0  0  0  0
   -1.2000   -0.1128   -1.6432 C   0  0  0  0  0  0  0  0  0  0  0  0
   -0.6479   -1.2401   -2.3344 N   0  0  0  0  0  0  0  0  0  0  0  0
    0.0651   -2.5749   -1.4881 S   0  0  0  0  0  6  0  0  0  0  0  0
    0.7224   -3.4977   -2.4749 O   0  0  0  0  0  0  0  0  0  0  0  0
   -1.0184   -3.3216   -0.7614 O   0  0  0  0  0  0  0  0  0  0  0  0
    1.2807   -1.9950   -0.3531 C   0  0  0  0  0  0  0  0  0  0  0  0
    1.3841   -2.5570    0.9270 C   0  0  0  0  0  0  0  0  0  0  0  0
    2.3368   -2.0767    1.8306 C   0  0  0  0  0  0  0  0  0  0  0  0
    3.1946   -1.0306    1.4624 C   0  0  0  0  0  0  0  0  0  0  0  0
    4.1644   -0.5350    2.3889 N   0  0  0  0  0  0  0  0  0  0  0  0
    3.0943   -0.4732    0.1798 C   0  0  0  0  0  0  0  0  0  0  0  0
    2.1434   -0.9554   -0.7245 C   0  0  0  0  0  0  0  0  0  0  0  0
   -1.8338    0.9099   -2.3554 C   0  0  0  0  0  0  0  0  0  0  0  0
   -4.3428    3.8450   -0.9844 H   0  0  0  0  0  0  0  0  0  0  0  0
   -4.0033    4.8310   -2.4590 H   0  0  0  0  0  0  0  0  0  0  0  0
   -2.7578    4.7168   -1.1560 H   0  0  0  0  0  0  0  0  0  0  0  0
   -1.2545   -0.8438    2.4075 H   0  0  0  0  0  0  0  0  0  0  0  0
    0.2720    0.1266    2.2412 H   0  0  0  0  0  0  0  0  0  0  0  0
   -0.8522    0.4335    3.6204 H   0  0  0  0  0  0  0  0  0  0  0  0
   -0.6939   -1.2852   -3.3770 H   0  0  0  0  0  0  0  0  0  0  0  0
    0.7268   -3.3620    1.2289 H   0  0  0  0  0  0  0  0  0  0  0  0
    2.4035   -2.5160    2.8179 H   0  0  0  0  0  0  0  0  0  0  0  0
    4.8073    0.2444    2.1241 H   0  0  0  0  0  0  0  0  0  0  0  0
    4.2457   -0.9429    3.3470 H   0  0  0  0  0  0  0  0  0  0  0  0
    3.7510    0.3345   -0.1179 H   0  0  0  0  0  0  0  0  0  0  0  0
    2.0745   -0.5139   -1.7106 H   0  0  0  0  0  0  0  0  0  0  0  0
   -1.9224    0.8640   -3.4337 H   0  0  0  0  0  0  0  0  0  0  0  0
  1  2  1  0
  2  3  1  0
  3  4  2  0
  4  5  1  0
  5  6  1  0
  6  7  1  0
  5  8  2  0
  8  9  1  0
  9 10  1  0
 10 11  1  0
 11 12  2  0
 11 13  2  0
 11 14  1  0
 14 15  2  0
 15 16  1  0
 16 17  2  0
 17 18  1  0
 17 19  1  0
 19 20  2  0
  9 21  2  0
 21  3  1  0
 20 14  1  0
  1 22  1  0
  1 23  1  0
  1 24  1  0
  7 25  1  0
  7 26  1  0
  7 27  1  0
 10 28  1  0
 15 29  1  0
 16 30  1  0
 18 31  1  0
 18 32  1  0
 19 33  1  0
 20 34  1  0
 21 35  1  0
M  END
$$$$
