
     RDKit          3D

 38 41  0  0  0  0  0  0  0  0999 V2000
    5.7221    1.9762    0.0912 O   0  0  0  0  0  0  0  0  0  0  0  0
    4.6534    1.1432   -0.2236 C   0  0  0  0  0  0  0  0  0  0  0  0
    4.8650   -0.0468   -0.5800 O   0  0  0  0  0  0  0  0  0  0  0  0
    3.2540    1.6546   -0.1115 C   0  0  0  0  0  0  0  0  0  0  0  0
    2.7686    1.8206    1.6394 S   0  0  0  0  0  0  0  0  0  0  0  0
    2.6574    0.0524    1.9319 C   0  0  0  0  0  0  0  0  0  0  0  0
    3.6617   -0.6853    2.4414 N   0  0  0  0  0  0  0  0  0  0  0  0
    3.2221   -1.9346    2.5153 N   0  0  0  0  0  0  0  0  0  0  0  0
    1.9590   -1.9375    2.0473 C   0  0  0  0  0  0  0  0  0  0  0  0
    0.8569   -3.4973    1.9785 Br  0  0  0  0  0  0  0  0  0  0  0  0
    1.5777   -0.7042    1.6676 N   0  0  0  0  0  0  0  0  0  0  0  0
    0.3060   -0.2860    1.1513 C   0  0  0  0  0  0  0  0  0  0  0  0
   -0.5215    0.4992    1.9573 C   0  0  0  0  0  0  0  0  0  0  0  0
   -1.7735    0.9066    1.5064 C   0  0  0  0  0  0  0  0  0  0  0  0
   -2.2430    0.5232    0.2410 C   0  0  0  0  0  0  0  0  0  0  0  0
   -3.6137    0.9924   -0.1972 C   0  0  0  0  0  0  0  0  0  0  0  0
   -4.7461    0.7795    0.8040 C   0  0  0  0  0  0  0  0  0  0  0  0
   -4.6325   -0.1223   -0.4081 C   0  0  0  0  0  0  0  0  0  0  0  0
   -1.3904   -0.2164   -0.6199 C   0  0  0  0  0  0  0  0  0  0  0  0
   -0.1102   -0.6326   -0.1541 C   0  0  0  0  0  0  0  0  0  0  0  0
    0.7364   -1.3581   -1.0167 C   0  0  0  0  0  0  0  0  0  0  0  0
    0.3286   -1.6733   -2.3121 C   0  0  0  0  0  0  0  0  0  0  0  0
   -0.9199   -1.2635   -2.7725 C   0  0  0  0  0  0  0  0  0  0  0  0
   -1.7725   -0.5372   -1.9407 C   0  0  0  0  0  0  0  0  0  0  0  0
    6.6764    1.6417    0.0308 H   0  0  0  0  0  0  0  0  0  0  0  0
    2.5468    0.9845   -0.6451 H   0  0  0  0  0  0  0  0  0  0  0  0
    3.1985    2.6552   -0.5879 H   0  0  0  0  0  0  0  0  0  0  0  0
   -0.1938    0.7892    2.9479 H   0  0  0  0  0  0  0  0  0  0  0  0
   -2.3858    1.5195    2.1562 H   0  0  0  0  0  0  0  0  0  0  0  0
   -3.7145    1.8715   -0.8682 H   0  0  0  0  0  0  0  0  0  0  0  0
   -5.5736    1.5164    0.7328 H   0  0  0  0  0  0  0  0  0  0  0  0
   -4.4929    0.2611    1.7536 H   0  0  0  0  0  0  0  0  0  0  0  0
   -4.2852   -1.1516   -0.1719 H   0  0  0  0  0  0  0  0  0  0  0  0
   -5.3835    0.0861   -1.1990 H   0  0  0  0  0  0  0  0  0  0  0  0
    1.7228   -1.6732   -0.7031 H   0  0  0  0  0  0  0  0  0  0  0  0
    0.9883   -2.2296   -2.9655 H   0  0  0  0  0  0  0  0  0  0  0  0
   -1.2263   -1.5028   -3.7828 H   0  0  0  0  0  0  0  0  0  0  0  0
   -2.7231   -0.2211   -2.3474 H   0  0  0  0  0  0  0  0  0  0  0  0
  1  2  1  0
  2  3  2  0
  2  4  1  0
  4  5  1  0
  5  6  1  0
  6  7  2  0
  7  8  1  0
  8  9  2  0
  9 10  1  0
  9 11  1  0
 11 12  1  0
 12 13  2  0
 13 14  1  0
 14 15  2  0
 15 16  1  0
 16 17  1  0
 17 18  1  0
 15 19  1  0
 19 20  2  0
 20 21  1  0
 21 22  2  0
 22 23  1  0
 23 24  2  0
 11  6  1  0
 20 12  1  0
 18 16  1  0
 24 19  1  0
  1 25  1  0
  4 26  1  0
  4 27  1  0
 13 28  1  0
 14 29  1  0
 16 30  1  0
 17 31  1  0
 17 32  1  0
 18 33  1  0
 18 34  1  0
 21 35  1  0
 22 36  1  0
 23 37  1  0
 24 38  1  0
M  END
$$$$
