
     RDKit          3D

 52 54  0  0  0  0  0  0  0  0999 V2000
    2.7163   -1.8892   -0.4016 C   0  0  1  0  0  0  0  0  0  0  0  0
    1.8480   -2.7199    0.3301 O   0  0  0  0  0  0  0  0  0  0  0  0
    1.9322   -0.8588   -1.2332 C   0  0  0  0  0  0  0  0  0  0  0  0
    2.8500   -0.1160   -2.1105 N   0  0  0  0  0  0  0  0  0  0  0  0
    2.3475    1.2192   -2.4765 C   0  0  0  0  0  0  0  0  0  0  0  0
    1.2607    1.1837   -3.5693 C   0  0  0  0  0  0  0  0  0  0  0  0
    0.0075    0.6081   -3.0787 N   0  0  0  0  0  0  0  0  0  0  0  0
   -0.7671    1.1575   -1.9971 C   0  0  0  0  0  0  0  0  0  0  0  0
   -1.6045    0.3089   -1.2571 C   0  0  0  0  0  0  0  0  0  0  0  0
   -2.3506    0.7987   -0.1702 C   0  0  0  0  0  0  0  0  0  0  0  0
   -2.2668    2.1638    0.1537 C   0  0  0  0  0  0  0  0  0  0  0  0
   -1.4482    3.0168   -0.5891 C   0  0  0  0  0  0  0  0  0  0  0  0
   -0.6998    2.5201   -1.6580 C   0  0  0  0  0  0  0  0  0  0  0  0
   -3.2000   -0.1165    0.6329 C   0  0  0  0  0  0  0  0  0  0  0  0
   -4.4812    0.2834    1.0561 C   0  0  0  0  0  0  0  0  0  0  0  0
   -5.2887   -0.5782    1.8202 C   0  0  0  0  0  0  0  0  0  0  0  0
   -4.7990   -1.8512    2.1601 C   0  0  0  0  0  0  0  0  0  0  0  0
   -3.5285   -2.2534    1.7441 C   0  0  0  0  0  0  0  0  0  0  0  0
   -2.7321   -1.3942    0.9855 C   0  0  0  0  0  0  0  0  0  0  0  0
   -6.6360   -0.1484    2.2566 C   0  0  0  0  0  0  0  0  0  0  0  0
   -7.1140    1.1152    1.9184 O   0  0  0  0  0  0  0  0  0  0  0  0
   -7.3632   -0.9206    2.9382 O   0  0  0  0  0  0  0  0  0  0  0  0
    3.7194   -1.2215    0.5201 C   0  0  0  0  0  0  0  0  0  0  0  0
    5.0981   -1.4142    0.3190 C   0  0  0  0  0  0  0  0  0  0  0  0
    6.0293   -0.7896    1.1537 C   0  0  0  0  0  0  0  0  0  0  0  0
    5.5964    0.0353    2.1942 C   0  0  0  0  0  0  0  0  0  0  0  0
    4.2293    0.2387    2.4027 C   0  0  0  0  0  0  0  0  0  0  0  0
    3.6865    1.2804    3.7055 Cl  0  0  0  0  0  0  0  0  0  0  0  0
    3.2936   -0.3854    1.5704 C   0  0  0  0  0  0  0  0  0  0  0  0
    3.2553   -2.5460   -1.1195 H   0  0  0  0  0  0  0  0  0  0  0  0
    1.2254   -2.1430    0.8446 H   0  0  0  0  0  0  0  0  0  0  0  0
    1.3868   -0.1751   -0.5458 H   0  0  0  0  0  0  0  0  0  0  0  0
    1.1806   -1.4026   -1.8460 H   0  0  0  0  0  0  0  0  0  0  0  0
    3.0355   -0.6772   -2.9749 H   0  0  0  0  0  0  0  0  0  0  0  0
    3.2037    1.8042   -2.8749 H   0  0  0  0  0  0  0  0  0  0  0  0
    1.9969    1.7706   -1.5778 H   0  0  0  0  0  0  0  0  0  0  0  0
    1.6276    0.5873   -4.4327 H   0  0  0  0  0  0  0  0  0  0  0  0
    1.0750    2.2107   -3.9479 H   0  0  0  0  0  0  0  0  0  0  0  0
   -0.2942   -0.3034   -3.4926 H   0  0  0  0  0  0  0  0  0  0  0  0
   -1.6651   -0.7385   -1.5270 H   0  0  0  0  0  0  0  0  0  0  0  0
   -2.8182    2.5673    0.9936 H   0  0  0  0  0  0  0  0  0  0  0  0
   -1.3879    4.0662   -0.3306 H   0  0  0  0  0  0  0  0  0  0  0  0
   -0.0754    3.2039   -2.2156 H   0  0  0  0  0  0  0  0  0  0  0  0
   -4.8543    1.2603    0.7742 H   0  0  0  0  0  0  0  0  0  0  0  0
   -5.3968   -2.5364    2.7480 H   0  0  0  0  0  0  0  0  0  0  0  0
   -3.1578   -3.2339    2.0143 H   0  0  0  0  0  0  0  0  0  0  0  0
   -1.7429   -1.7217    0.6900 H   0  0  0  0  0  0  0  0  0  0  0  0
   -8.0346    1.4191    2.2123 H   0  0  0  0  0  0  0  0  0  0  0  0
    5.4547   -2.0455   -0.4853 H   0  0  0  0  0  0  0  0  0  0  0  0
    7.0883   -0.9438    0.9920 H   0  0  0  0  0  0  0  0  0  0  0  0
    6.3234    0.5169    2.8357 H   0  0  0  0  0  0  0  0  0  0  0  0
    2.2390   -0.2117    1.7414 H   0  0  0  0  0  0  0  0  0  0  0  0
  1  2  1  0
  1  3  1  0
  3  4  1  0
  4  5  1  0
  5  6  1  0
  6  7  1  0
  7  8  1  0
  8  9  2  0
  9 10  1  0
 10 11  2  0
 11 12  1  0
 12 13  2  0
 10 14  1  0
 14 15  2  0
 15 16  1  0
 16 17  2  0
 17 18  1  0
 18 19  2  0
 16 20  1  0
 20 21  1  0
 20 22  2  0
  1 23  1  0
 23 24  2  0
 24 25  1  0
 25 26  2  0
 26 27  1  0
 27 28  1  0
 27 29  2  0
 13  8  1  0
 19 14  1  0
 29 23  1  0
  1 30  1  6
  2 31  1  0
  3 32  1  0
  3 33  1  0
  4 34  1  0
  5 35  1  0
  5 36  1  0
  6 37  1  0
  6 38  1  0
  7 39  1  0
  9 40  1  0
 11 41  1  0
 12 42  1  0
 13 43  1  0
 15 44  1  0
 17 45  1  0
 18 46  1  0
 19 47  1  0
 21 48  1  0
 24 49  1  0
 25 50  1  0
 26 51  1  0
 29 52  1  0
M  END
$$$$
