
     RDKit          3D

 43 46  0  0  0  0  0  0  0  0999 V2000
   -6.4358   -1.8563    0.1154 O   0  0  0  0  0  0  0  0  0  0  0  0
   -5.7384   -0.8641    0.7999 C   0  0  0  0  0  0  0  0  0  0  0  0
   -6.3651   -0.0937    1.5768 O   0  0  0  0  0  0  0  0  0  0  0  0
   -4.2778   -0.7169    0.6157 C   0  0  0  0  0  0  0  0  0  0  0  0
   -3.5642    0.2790    1.3055 C   0  0  0  0  0  0  0  0  0  0  0  0
   -2.1848    0.4149    1.1271 C   0  0  0  0  0  0  0  0  0  0  0  0
   -1.4949   -0.4328    0.2454 C   0  0  0  0  0  0  0  0  0  0  0  0
   -2.2016   -1.4401   -0.4267 C   0  0  0  0  0  0  0  0  0  0  0  0
   -3.5812   -1.5778   -0.2493 C   0  0  0  0  0  0  0  0  0  0  0  0
   -0.0741   -0.3106    0.0597 N   0  0  0  0  0  0  0  0  0  0  0  0
    0.7370   -1.3489   -0.0329 N   0  0  0  0  0  0  0  0  0  0  0  0
    1.9789   -0.8419   -0.1642 C   0  0  0  0  0  0  0  0  0  0  0  0
    1.9883    0.5098   -0.1429 N   0  0  0  0  0  0  0  0  0  0  0  0
    0.6812    0.8087   -0.0041 C   0  0  0  0  0  0  0  0  0  0  0  0
    0.1663    2.1928   -0.0656 C   0  0  0  0  0  0  0  0  0  0  0  0
   -0.8459    2.5058   -0.9897 C   0  0  0  0  0  0  0  0  0  0  0  0
   -1.3250    3.8129   -1.1003 C   0  0  0  0  0  0  0  0  0  0  0  0
   -0.7927    4.8228   -0.2981 C   0  0  0  0  0  0  0  0  0  0  0  0
    0.2159    4.5267    0.6212 C   0  0  0  0  0  0  0  0  0  0  0  0
    0.6974    3.2181    0.7516 C   0  0  0  0  0  0  0  0  0  0  0  0
    1.6795    2.9683    1.7123 O   0  0  0  0  0  0  0  0  0  0  0  0
    3.2079   -1.6625   -0.2348 C   0  0  0  0  0  0  0  0  0  0  0  0
    4.3833   -1.1586    0.3525 C   0  0  0  0  0  0  0  0  0  0  0  0
    5.5505   -1.9247    0.3811 C   0  0  0  0  0  0  0  0  0  0  0  0
    5.5616   -3.2027   -0.1757 C   0  0  0  0  0  0  0  0  0  0  0  0
    4.4110   -3.7104   -0.7809 C   0  0  0  0  0  0  0  0  0  0  0  0
    3.2381   -2.9467   -0.8374 C   0  0  0  0  0  0  0  0  0  0  0  0
    2.1477   -3.4822   -1.5263 O   0  0  0  0  0  0  0  0  0  0  0  0
   -7.4359   -1.9656    0.2341 H   0  0  0  0  0  0  0  0  0  0  0  0
   -4.0702    0.9498    1.9887 H   0  0  0  0  0  0  0  0  0  0  0  0
   -1.6548    1.1712    1.6909 H   0  0  0  0  0  0  0  0  0  0  0  0
   -1.6840   -2.1115   -1.1005 H   0  0  0  0  0  0  0  0  0  0  0  0
   -4.1009   -2.3586   -0.7901 H   0  0  0  0  0  0  0  0  0  0  0  0
   -1.2557    1.7395   -1.6362 H   0  0  0  0  0  0  0  0  0  0  0  0
   -2.1044    4.0444   -1.8147 H   0  0  0  0  0  0  0  0  0  0  0  0
   -1.1625    5.8360   -0.3878 H   0  0  0  0  0  0  0  0  0  0  0  0
    0.6185    5.3153    1.2443 H   0  0  0  0  0  0  0  0  0  0  0  0
    2.0212    2.0399    1.9239 H   0  0  0  0  0  0  0  0  0  0  0  0
    4.3920   -0.1792    0.8153 H   0  0  0  0  0  0  0  0  0  0  0  0
    6.4449   -1.5302    0.8459 H   0  0  0  0  0  0  0  0  0  0  0  0
    6.4654   -3.7975   -0.1470 H   0  0  0  0  0  0  0  0  0  0  0  0
    4.4362   -4.6952   -1.2301 H   0  0  0  0  0  0  0  0  0  0  0  0
    1.3271   -2.9473   -1.7744 H   0  0  0  0  0  0  0  0  0  0  0  0
  1  2  1  0
  2  3  2  0
  2  4  1  0
  4  5  2  0
  5  6  1  0
  6  7  2  0
  7  8  1  0
  8  9  2  0
  7 10  1  0
 10 11  1  0
 11 12  2  0
 12 13  1  0
 13 14  2  0
 14 15  1  0
 15 16  2  0
 16 17  1  0
 17 18  2  0
 18 19  1  0
 19 20  2  0
 20 21  1  0
 12 22  1  0
 22 23  2  0
 23 24  1  0
 24 25  2  0
 25 26  1  0
 26 27  2  0
 27 28  1  0
  9  4  1  0
 14 10  1  0
 20 15  1  0
 27 22  1  0
  1 29  1  0
  5 30  1  0
  6 31  1  0
  8 32  1  0
  9 33  1  0
 16 34  1  0
 17 35  1  0
 18 36  1  0
 19 37  1  0
 21 38  1  0
 23 39  1  0
 24 40  1  0
 25 41  1  0
 26 42  1  0
 28 43  1  0
M  END
$$$$
