
     RDKit          3D

 30 31  0  0  0  0  0  0  0  0999 V2000
   -4.6592    2.0092    0.9193 C   0  0  0  0  0  0  0  0  0  0  0  0
   -4.1817    0.8008    0.1817 C   0  0  0  0  0  0  0  0  0  0  0  0
   -4.9649    0.2107   -0.6103 O   0  0  0  0  0  0  0  0  0  0  0  0
   -2.8191    0.3722    0.3196 N   0  0  0  0  0  0  0  0  0  0  0  0
   -2.3196   -0.8670   -0.2087 C   0  0  0  0  0  0  0  0  0  0  0  0
   -3.0380   -2.0249   -0.4303 C   0  0  0  0  0  0  0  0  0  0  0  0
   -2.1755   -2.9804   -0.8187 N   0  0  0  0  0  0  0  0  0  0  0  0
   -0.9442   -2.4939   -0.8475 N   0  0  0  0  0  0  0  0  0  0  0  0
   -0.9976   -1.1989   -0.4737 C   0  0  0  0  0  0  0  0  0  0  0  0
    0.1903   -0.3249   -0.4045 C   0  0  0  0  0  0  0  0  0  0  0  0
    0.0494    0.9126   -0.2133 O   0  0  0  0  0  0  0  0  0  0  0  0
    1.5012   -0.8766   -0.6140 N   0  0  0  0  0  0  0  0  0  0  0  0
    2.7233   -0.1730   -0.3315 C   0  0  0  0  0  0  0  0  0  0  0  0
    3.8595   -0.4236   -1.1173 C   0  0  0  0  0  0  0  0  0  0  0  0
    5.0653    0.2314   -0.8484 C   0  0  0  0  0  0  0  0  0  0  0  0
    5.1511    1.1310    0.2174 C   0  0  0  0  0  0  0  0  0  0  0  0
    6.3216    1.7633    0.4789 F   0  0  0  0  0  0  0  0  0  0  0  0
    4.0326    1.3703    1.0203 C   0  0  0  0  0  0  0  0  0  0  0  0
    2.8247    0.7178    0.7538 C   0  0  0  0  0  0  0  0  0  0  0  0
   -4.3083    2.9233    0.3969 H   0  0  0  0  0  0  0  0  0  0  0  0
   -4.2581    2.0026    1.9544 H   0  0  0  0  0  0  0  0  0  0  0  0
   -5.7688    2.0204    0.9680 H   0  0  0  0  0  0  0  0  0  0  0  0
   -2.1655    0.9938    0.8443 H   0  0  0  0  0  0  0  0  0  0  0  0
   -4.0981   -2.1814   -0.2834 H   0  0  0  0  0  0  0  0  0  0  0  0
   -2.4205   -3.9682   -1.0508 H   0  0  0  0  0  0  0  0  0  0  0  0
    1.5748   -1.8116   -1.0751 H   0  0  0  0  0  0  0  0  0  0  0  0
    3.8065   -1.1200   -1.9449 H   0  0  0  0  0  0  0  0  0  0  0  0
    5.9333    0.0388   -1.4658 H   0  0  0  0  0  0  0  0  0  0  0  0
    4.1029    2.0549    1.8558 H   0  0  0  0  0  0  0  0  0  0  0  0
    1.9824    0.8910    1.4102 H   0  0  0  0  0  0  0  0  0  0  0  0
  1  2  1  0
  2  3  2  0
  2  4  1  0
  4  5  1  0
  5  6  2  0
  6  7  1  0
  7  8  1  0
  8  9  2  0
  9 10  1  0
 10 11  2  0
 10 12  1  0
 12 13  1  0
 13 14  2  0
 14 15  1  0
 15 16  2  0
 16 17  1  0
 16 18  1  0
 18 19  2  0
  9  5  1  0
 19 13  1  0
  1 20  1  0
  1 21  1  0
  1 22  1  0
  4 23  1  0
  6 24  1  0
  7 25  1  0
 12 26  1  0
 14 27  1  0
 15 28  1  0
 18 29  1  0
 19 30  1  0
M  END
$$$$
