
     RDKit          3D

 47 49  0  0  0  0  0  0  0  0999 V2000
   -7.7519    0.1837    0.4853 N   0  0  0  0  0  0  0  0  0  0  0  0
   -6.5646   -0.5305    0.8286 C   0  0  0  0  0  0  0  0  0  0  0  0
   -5.4051   -0.2798    0.1460 N   0  0  0  0  0  0  0  0  0  0  0  0
   -4.2966   -0.9762    0.4932 C   0  0  0  0  0  0  0  0  0  0  0  0
   -4.2921   -1.8915    1.4867 C   0  0  0  0  0  0  0  0  0  0  0  0
   -3.0590   -2.4063    1.6518 N   0  0  0  0  0  0  0  0  0  0  0  0
   -2.3325   -1.7513    0.7038 C   0  0  0  0  0  0  0  0  0  0  0  0
   -3.0694   -0.8763   -0.0306 N   0  0  0  0  0  0  0  0  0  0  0  0
   -2.6030    0.0610   -1.0533 C   0  0  1  0  0  0  0  0  0  0  0  0
   -2.1465    1.3645   -0.4191 C   0  0  0  0  0  0  0  0  0  0  0  0
   -1.0043    1.7870   -1.3009 C   0  0  2  0  0  0  0  0  0  0  0  0
   -1.4351    2.6753   -2.3059 O   0  0  0  0  0  0  0  0  0  0  0  0
   -0.5125    0.4611   -1.8973 C   0  0  1  0  0  0  0  0  0  0  0  0
    0.7427   -0.0580   -1.1845 C   0  0  0  0  0  0  0  0  0  0  0  0
    1.8175    0.8204   -1.4265 O   0  0  0  0  0  0  0  0  0  0  0  0
    3.1793    0.2600   -0.5657 P   0  0  0  0  0  5  0  0  0  0  0  0
    2.8161    0.1991    1.0888 O   0  0  0  0  0  0  0  0  0  0  0  0
    3.5507   -1.1228   -1.0558 O   0  0  0  0  0  0  0  0  0  0  0  0
    4.4661    1.3351   -0.8635 O   0  0  0  0  0  0  0  0  0  0  0  0
    5.7226    0.9638    0.2248 P   0  0  0  0  0  5  0  0  0  0  0  0
    7.1023    1.8112   -0.2713 O   0  0  0  0  0  0  0  0  0  0  0  0
    5.3339    1.4258    1.6125 O   0  0  0  0  0  0  0  0  0  0  0  0
    6.0274   -0.7133    0.2264 O   0  0  0  0  0  0  0  0  0  0  0  0
    7.4603   -0.9839    1.1047 P   0  0  0  0  0  5  0  0  0  0  0  0
    8.7937   -0.3895    0.2462 O   0  0  0  0  0  0  0  0  0  0  0  0
    7.3863   -0.2542    2.6319 O   0  0  0  0  0  0  0  0  0  0  0  0
    7.6323   -2.4736    1.2938 O   0  0  0  0  0  0  0  0  0  0  0  0
   -1.5361   -0.5061   -1.7837 O   0  0  0  0  0  0  0  0  0  0  0  0
   -5.4584   -2.1542    2.1897 C   0  0  0  0  0  0  0  0  0  0  0  0
   -5.4807   -2.9999    3.1233 O   0  0  0  0  0  0  0  0  0  0  0  0
   -6.5867   -1.4630    1.8409 N   0  0  0  0  0  0  0  0  0  0  0  0
   -8.6463    0.0077    0.9943 H   0  0  0  0  0  0  0  0  0  0  0  0
   -7.7373    0.8922   -0.2815 H   0  0  0  0  0  0  0  0  0  0  0  0
   -1.2705   -1.9053    0.5644 H   0  0  0  0  0  0  0  0  0  0  0  0
   -3.4326    0.2708   -1.7651 H   0  0  0  0  0  0  0  0  0  0  0  0
   -1.7706    1.1889    0.6140 H   0  0  0  0  0  0  0  0  0  0  0  0
   -2.9635    2.1186   -0.3900 H   0  0  0  0  0  0  0  0  0  0  0  0
   -0.2224    2.2990   -0.6974 H   0  0  0  0  0  0  0  0  0  0  0  0
   -2.1317    2.2188   -2.8477 H   0  0  0  0  0  0  0  0  0  0  0  0
   -0.2677    0.5927   -2.9748 H   0  0  0  0  0  0  0  0  0  0  0  0
    0.9742   -1.0697   -1.5883 H   0  0  0  0  0  0  0  0  0  0  0  0
    0.5232   -0.1400   -0.0953 H   0  0  0  0  0  0  0  0  0  0  0  0
    2.4759    1.1039    1.3048 H   0  0  0  0  0  0  0  0  0  0  0  0
    6.8228    2.7612   -0.2899 H   0  0  0  0  0  0  0  0  0  0  0  0
    8.7121   -0.7902   -0.6559 H   0  0  0  0  0  0  0  0  0  0  0  0
    7.9152    0.5786    2.5445 H   0  0  0  0  0  0  0  0  0  0  0  0
   -7.4778   -1.6447    2.3562 H   0  0  0  0  0  0  0  0  0  0  0  0
  1  2  1  0
  2  3  2  0
  3  4  1  0
  4  5  2  0
  5  6  1  0
  6  7  2  0
  7  8  1  0
  8  9  1  0
  9 10  1  0
 10 11  1  0
 11 12  1  0
 11 13  1  0
 13 14  1  0
 14 15  1  0
 15 16  1  0
 16 17  1  0
 16 18  2  0
 16 19  1  0
 19 20  1  0
 20 21  1  0
 20 22  2  0
 20 23  1  0
 23 24  1  0
 24 25  1  0
 24 26  1  0
 24 27  2  0
 13 28  1  0
  5 29  1  0
 29 30  2  0
 29 31  1  0
 31  2  1  0
  8  4  1  0
 28  9  1  0
  1 32  1  0
  1 33  1  0
  7 34  1  0
  9 35  1  6
 10 36  1  0
 10 37  1  0
 11 38  1  1
 12 39  1  0
 13 40  1  6
 14 41  1  0
 14 42  1  0
 17 43  1  0
 21 44  1  0
 25 45  1  0
 26 46  1  0
 31 47  1  0
M  END
$$$$
