
     RDKit          3D

 67 69  0  0  0  0  0  0  0  0999 V2000
    0.2375    3.8917   -2.7972 C   0  0  0  0  0  0  0  0  0  0  0  0
   -0.2896    2.4901   -2.4607 C   0  0  2  0  0  0  0  0  0  0  0  0
   -0.8739    2.4444   -1.0255 C   0  0  0  0  0  0  0  0  0  0  0  0
   -1.4793    1.1029   -0.6925 C   0  0  0  0  0  0  0  0  0  0  0  0
   -0.8374    0.2355    0.2102 C   0  0  0  0  0  0  0  0  0  0  0  0
   -1.4041   -1.0110    0.4651 C   0  0  0  0  0  0  0  0  0  0  0  0
   -2.5818   -1.4030   -0.1153 C   0  0  0  0  0  0  0  0  0  0  0  0
   -3.0129   -2.6624    0.4042 N   0  0  0  0  0  0  0  0  0  0  0  0
   -4.4110   -3.0158    0.6843 C   0  0  0  0  0  0  0  0  0  0  0  0
   -5.0474   -2.0150    1.6574 C   0  0  0  0  0  0  0  0  0  0  0  0
   -6.4870   -2.4044    1.9873 C   0  0  0  0  0  0  0  0  0  0  0  0
   -7.0322   -1.4673    2.8732 O   0  0  0  0  0  0  0  0  0  0  0  0
   -1.9300   -3.1864    1.2458 C   0  0  0  0  0  0  0  0  0  0  0  0
   -0.8970   -2.0511    1.3934 C   0  0  0  0  0  0  0  0  0  0  0  0
   -3.2324   -0.5766   -1.0554 C   0  0  0  0  0  0  0  0  0  0  0  0
   -2.6749    0.6907   -1.3199 C   0  0  0  0  0  0  0  0  0  0  0  0
   -4.3914   -1.0265   -1.8444 C   0  0  0  0  0  0  0  0  0  0  0  0
   -5.5328   -0.1835   -2.0029 N   0  0  0  0  0  0  0  0  0  0  0  0
   -4.3580   -2.1446   -2.4246 O   0  0  0  0  0  0  0  0  0  0  0  0
    0.7262    1.4480   -2.7319 N   0  0  0  0  0  0  0  0  0  0  0  0
    1.9227    1.5179   -1.8787 C   0  0  0  0  0  0  0  0  0  0  0  0
    2.9144    0.4223   -2.2784 C   0  0  0  0  0  0  0  0  0  0  0  0
    4.0557    0.4408   -1.4206 O   0  0  0  0  0  0  0  0  0  0  0  0
    4.0845   -0.0087   -0.0883 C   0  0  0  0  0  0  0  0  0  0  0  0
    3.0007   -0.6910    0.5019 C   0  0  0  0  0  0  0  0  0  0  0  0
    3.0713   -1.1105    1.8313 C   0  0  0  0  0  0  0  0  0  0  0  0
    4.2205   -0.8663    2.5814 C   0  0  0  0  0  0  0  0  0  0  0  0
    5.3048   -0.2009    2.0065 C   0  0  0  0  0  0  0  0  0  0  0  0
    5.2438    0.2367    0.6676 C   0  0  0  0  0  0  0  0  0  0  0  0
    6.3082    0.9097    0.0420 O   0  0  0  0  0  0  0  0  0  0  0  0
    7.4930    1.3902    0.6798 C   0  0  0  0  0  0  0  0  0  0  0  0
    7.2376    2.7245    1.3804 C   0  0  0  0  0  0  0  0  0  0  0  0
    6.7424    3.6421    0.4716 F   0  0  0  0  0  0  0  0  0  0  0  0
    8.4248    3.2042    1.9023 F   0  0  0  0  0  0  0  0  0  0  0  0
    6.3274    2.5702    2.4089 F   0  0  0  0  0  0  0  0  0  0  0  0
   -0.6072    4.6122   -2.8389 H   0  0  0  0  0  0  0  0  0  0  0  0
    0.9546    4.2486   -2.0287 H   0  0  0  0  0  0  0  0  0  0  0  0
    0.7380    3.8835   -3.7888 H   0  0  0  0  0  0  0  0  0  0  0  0
   -1.1325    2.3101   -3.1649 H   0  0  0  0  0  0  0  0  0  0  0  0
   -0.1019    2.7267   -0.2782 H   0  0  0  0  0  0  0  0  0  0  0  0
   -1.6734    3.2128   -0.9406 H   0  0  0  0  0  0  0  0  0  0  0  0
    0.0756    0.5244    0.7137 H   0  0  0  0  0  0  0  0  0  0  0  0
   -4.9970   -3.0675   -0.2515 H   0  0  0  0  0  0  0  0  0  0  0  0
   -4.4484   -4.0343    1.1300 H   0  0  0  0  0  0  0  0  0  0  0  0
   -5.0446   -0.9995    1.2060 H   0  0  0  0  0  0  0  0  0  0  0  0
   -4.4522   -1.9832    2.5959 H   0  0  0  0  0  0  0  0  0  0  0  0
   -7.0898   -2.4278    1.0515 H   0  0  0  0  0  0  0  0  0  0  0  0
   -6.5024   -3.4140    2.4563 H   0  0  0  0  0  0  0  0  0  0  0  0
   -7.9619   -1.7654    3.0510 H   0  0  0  0  0  0  0  0  0  0  0  0
   -1.4661   -4.0613    0.7416 H   0  0  0  0  0  0  0  0  0  0  0  0
   -2.3107   -3.4968    2.2437 H   0  0  0  0  0  0  0  0  0  0  0  0
    0.1155   -2.3888    1.0855 H   0  0  0  0  0  0  0  0  0  0  0  0
   -0.8809   -1.6595    2.4332 H   0  0  0  0  0  0  0  0  0  0  0  0
   -3.1481    1.3447   -2.0429 H   0  0  0  0  0  0  0  0  0  0  0  0
   -5.5898    0.7368   -1.5131 H   0  0  0  0  0  0  0  0  0  0  0  0
   -6.3391   -0.4945   -2.5888 H   0  0  0  0  0  0  0  0  0  0  0  0
    0.2811    0.5074   -2.6164 H   0  0  0  0  0  0  0  0  0  0  0  0
    2.4316    2.4963   -2.0025 H   0  0  0  0  0  0  0  0  0  0  0  0
    1.6545    1.3913   -0.8130 H   0  0  0  0  0  0  0  0  0  0  0  0
    3.2561    0.6163   -3.3172 H   0  0  0  0  0  0  0  0  0  0  0  0
    2.4383   -0.5812   -2.2708 H   0  0  0  0  0  0  0  0  0  0  0  0
    2.0998   -0.9050   -0.0543 H   0  0  0  0  0  0  0  0  0  0  0  0
    2.2346   -1.6292    2.2807 H   0  0  0  0  0  0  0  0  0  0  0  0
    4.2730   -1.1967    3.6109 H   0  0  0  0  0  0  0  0  0  0  0  0
    6.1811   -0.0359    2.6154 H   0  0  0  0  0  0  0  0  0  0  0  0
    8.2602    1.5551   -0.1061 H   0  0  0  0  0  0  0  0  0  0  0  0
    7.9100    0.6378    1.3808 H   0  0  0  0  0  0  0  0  0  0  0  0
  1  2  1  0
  2  3  1  0
  3  4  1  0
  4  5  2  0
  5  6  1  0
  6  7  2  0
  7  8  1  0
  8  9  1  0
  9 10  1  0
 10 11  1  0
 11 12  1  0
  8 13  1  0
 13 14  1  0
  7 15  1  0
 15 16  2  0
 15 17  1  0
 17 18  1  0
 17 19  2  0
  2 20  1  0
 20 21  1  0
 21 22  1  0
 22 23  1  0
 23 24  1  0
 24 25  2  0
 25 26  1  0
 26 27  2  0
 27 28  1  0
 28 29  2  0
 29 30  1  0
 30 31  1  0
 31 32  1  0
 32 33  1  0
 32 34  1  0
 32 35  1  0
 16  4  1  0
 29 24  1  0
 14  6  1  0
  1 36  1  0
  1 37  1  0
  1 38  1  0
  2 39  1  6
  3 40  1  0
  3 41  1  0
  5 42  1  0
  9 43  1  0
  9 44  1  0
 10 45  1  0
 10 46  1  0
 11 47  1  0
 11 48  1  0
 12 49  1  0
 13 50  1  0
 13 51  1  0
 14 52  1  0
 14 53  1  0
 16 54  1  0
 18 55  1  0
 18 56  1  0
 20 57  1  0
 21 58  1  0
 21 59  1  0
 22 60  1  0
 22 61  1  0
 25 62  1  0
 26 63  1  0
 27 64  1  0
 28 65  1  0
 31 66  1  0
 31 67  1  0
M  END
$$$$
