
     RDKit          3D

 65 72  0  0  0  0  0  0  0  0999 V2000
    0.7173    5.7411    1.3274 C   0  0  0  0  0  0  0  0  0  0  0  0
    0.8918    4.3261    0.8643 C   0  0  0  0  0  0  0  0  0  0  0  0
    2.0568    3.7856    0.3823 C   0  0  0  0  0  0  0  0  0  0  0  0
    1.7691    2.4697    0.0743 C   0  0  0  0  0  0  0  0  0  0  0  0
    2.6780    1.6279   -0.4099 C   0  0  0  0  0  0  0  0  0  0  0  0
    2.4373    0.2153   -0.7181 C   0  0  0  0  0  0  0  0  0  0  0  0
    1.3080   -0.4005   -0.5515 N   0  0  0  0  0  4  0  0  0  0  0  0
    1.5457   -1.7545   -0.9266 C   0  0  0  0  0  0  0  0  0  0  0  0
    0.6343   -2.7223   -0.9650 C   0  0  0  0  0  0  0  0  0  0  0  0
   -0.7707   -2.5478   -0.5823 C   0  0  0  0  0  0  0  0  0  0  0  0
   -1.7214   -3.5636   -0.6304 C   0  0  0  0  0  0  0  0  0  0  0  0
   -1.4756   -4.9727   -1.0105 C   0  0  0  0  0  0  0  0  0  0  0  0
   -2.3614   -5.7040   -1.6829 C   0  0  0  0  0  0  0  0  0  0  0  0
   -2.9050   -2.9989   -0.1904 C   0  0  0  0  0  0  0  0  0  0  0  0
   -4.2365   -3.6622   -0.0047 C   0  0  0  0  0  0  0  0  0  0  0  0
   -2.6228   -1.6764    0.0712 C   0  0  0  0  0  0  0  0  0  0  0  0
   -3.5781   -0.7797    0.5301 O   0  0  0  0  0  0  0  0  0  0  0  0
   -3.3489    0.5585    0.8166 C   0  0  0  0  0  0  0  0  0  0  0  0
   -4.3261    1.4188    1.2896 C   0  0  0  0  0  0  0  0  0  0  0  0
   -5.7400    1.1114    1.6021 C   0  0  0  0  0  0  0  0  0  0  0  0
   -6.4226    0.1302    1.0143 C   0  0  0  0  0  0  0  0  0  0  0  0
   -3.6910    2.6299    1.4889 C   0  0  0  0  0  0  0  0  0  0  0  0
   -4.3029    3.8899    2.0317 C   0  0  0  0  0  0  0  0  0  0  0  0
   -2.3619    2.4415    1.1306 C   0  0  0  0  0  0  0  0  0  0  0  0
   -1.3308    3.4786    1.2082 C   0  0  0  0  0  0  0  0  0  0  0  0
   -0.0629    3.3179    0.8236 C   0  0  0  0  0  0  0  0  0  0  0  0
    0.4762    2.1727    0.3384 N   0  0  0  0  0  0  0  0  0  0  0  0
   -0.4233    0.3907    0.0845 Fe  0  0  0  0  0  4  0  0  0  0  0  0
   -1.3258   -1.3881   -0.1622 N   0  0  0  0  0  0  0  0  0  0  0  0
   -2.1552    1.1777    0.7107 N   0  0  0  0  0  0  0  0  0  0  0  0
    2.9482   -1.9057   -1.3102 C   0  0  0  0  0  0  0  0  0  0  0  0
    3.6284   -3.1556   -1.7944 C   0  0  0  0  0  0  0  0  0  0  0  0
    3.4816   -0.6920   -1.2266 C   0  0  0  0  0  0  0  0  0  0  0  0
    4.9096   -0.3246   -1.5389 C   0  0  0  0  0  0  0  0  0  0  0  0
    5.7713   -0.3975   -0.2769 C   0  0  0  0  0  0  0  0  0  0  0  0
    7.1867   -0.0287   -0.5882 C   0  0  0  0  0  0  0  0  0  0  0  0
    8.0798   -1.0069   -1.0136 O   0  0  0  0  0  0  0  0  0  0  0  0
    7.5595    1.1721   -0.5046 O   0  0  0  0  0  0  0  0  0  0  0  0
   -0.0501    6.2463    0.7044 H   0  0  0  0  0  0  0  0  0  0  0  0
    0.3954    5.7500    2.3896 H   0  0  0  0  0  0  0  0  0  0  0  0
    1.6724    6.3010    1.2401 H   0  0  0  0  0  0  0  0  0  0  0  0
    3.0084    4.2919    0.2736 H   0  0  0  0  0  0  0  0  0  0  0  0
    3.6804    2.0065   -0.5661 H   0  0  0  0  0  0  0  0  0  0  0  0
    0.9401   -3.6987   -1.3111 H   0  0  0  0  0  0  0  0  0  0  0  0
   -0.5156   -5.4165   -0.7810 H   0  0  0  0  0  0  0  0  0  0  0  0
   -2.1225   -6.7243   -1.9534 H   0  0  0  0  0  0  0  0  0  0  0  0
   -3.3092   -5.2955   -2.0038 H   0  0  0  0  0  0  0  0  0  0  0  0
   -4.1016   -4.7042    0.3525 H   0  0  0  0  0  0  0  0  0  0  0  0
   -4.7897   -3.6631   -0.9664 H   0  0  0  0  0  0  0  0  0  0  0  0
   -4.8382   -3.1160    0.7520 H   0  0  0  0  0  0  0  0  0  0  0  0
   -6.2604    1.7307    2.3209 H   0  0  0  0  0  0  0  0  0  0  0  0
   -5.9889   -0.4917    0.2446 H   0  0  0  0  0  0  0  0  0  0  0  0
   -7.4579   -0.0373    1.2812 H   0  0  0  0  0  0  0  0  0  0  0  0
   -5.4090    3.8619    1.9626 H   0  0  0  0  0  0  0  0  0  0  0  0
   -4.0067    4.0181    3.0934 H   0  0  0  0  0  0  0  0  0  0  0  0
   -3.9572    4.7654    1.4441 H   0  0  0  0  0  0  0  0  0  0  0  0
   -1.6336    4.4442    1.5917 H   0  0  0  0  0  0  0  0  0  0  0  0
    4.7142   -3.1314   -1.5685 H   0  0  0  0  0  0  0  0  0  0  0  0
    3.2098   -4.0466   -1.2840 H   0  0  0  0  0  0  0  0  0  0  0  0
    3.4821   -3.2564   -2.8897 H   0  0  0  0  0  0  0  0  0  0  0  0
    5.3193   -1.0023   -2.3186 H   0  0  0  0  0  0  0  0  0  0  0  0
    4.9448    0.7004   -1.9647 H   0  0  0  0  0  0  0  0  0  0  0  0
    5.7482   -1.4292    0.1364 H   0  0  0  0  0  0  0  0  0  0  0  0
    5.3710    0.2935    0.4971 H   0  0  0  0  0  0  0  0  0  0  0  0
    9.0375   -0.7708   -1.2443 H   0  0  0  0  0  0  0  0  0  0  0  0
  1  2  1  0
  2  3  2  0
  3  4  1  0
  4  5  2  0
  5  6  1  0
  6  7  2  0
  7  8  1  0
  8  9  2  0
  9 10  1  0
 10 11  2  0
 11 12  1  0
 12 13  2  3
 11 14  1  0
 14 15  1  0
 14 16  2  0
 16 17  1  0
 17 18  1  0
 18 19  2  0
 19 20  1  0
 20 21  2  3
 19 22  1  0
 22 23  1  0
 22 24  2  0
 24 25  1  0
 25 26  2  0
 26 27  1  0
 27 28  1  0
 28 29  1  0
 28 30  1  0
  8 31  1  0
 31 32  1  0
 31 33  2  0
 33 34  1  0
 34 35  1  0
 35 36  1  0
 36 37  1  0
 36 38  2  0
 26  2  1  0
 27  4  1  0
 33  6  1  0
 28  7  1  0
 29 10  1  0
 29 16  1  0
 30 18  1  0
 30 24  1  0
  1 39  1  0
  1 40  1  0
  1 41  1  0
  3 42  1  0
  5 43  1  0
  9 44  1  0
 12 45  1  0
 13 46  1  0
 13 47  1  0
 15 48  1  0
 15 49  1  0
 15 50  1  0
 20 51  1  0
 21 52  1  0
 21 53  1  0
 23 54  1  0
 23 55  1  0
 23 56  1  0
 25 57  1  0
 32 58  1  0
 32 59  1  0
 32 60  1  0
 34 61  1  0
 34 62  1  0
 35 63  1  0
 35 64  1  0
 37 65  1  0
M  CHG  1   7   1
M  END
$$$$
