
     RDKit          3D

138141  0  0  0  0  0  0  0  0999 V2000
   -5.1571   -6.5523    0.1816 N   0  0  0  0  0  0  0  0  0  0  0  0
   -6.0077   -5.5523   -0.3791 C   0  0  0  0  0  0  0  0  0  0  0  0
   -7.2572   -5.6498   -0.2501 O   0  0  0  0  0  0  0  0  0  0  0  0
   -5.4199   -4.3640   -1.0777 C   0  0  0  0  0  0  0  0  0  0  0  0
   -4.9934   -3.3020   -0.0523 C   0  0  0  0  0  0  0  0  0  0  0  0
   -4.3059   -2.0665   -0.6744 C   0  0  2  0  0  0  0  0  0  0  0  0
   -5.1942   -1.4059   -1.6450 N   0  0  0  0  0  0  0  0  0  0  0  0
   -5.9262   -0.1776   -1.4535 C   0  0  0  0  0  0  0  0  0  0  0  0
   -6.5598    0.2914   -2.4384 O   0  0  0  0  0  0  0  0  0  0  0  0
   -6.0383    0.5430   -0.1202 C   0  0  2  0  0  0  0  0  0  0  0  0
   -7.1393   -0.0549    0.7837 C   0  0  0  0  0  0  0  0  0  0  0  0
   -8.4775   -0.2172    0.1011 C   0  0  0  0  0  0  0  0  0  0  0  0
   -9.4451    0.7991    0.1759 C   0  0  0  0  0  0  0  0  0  0  0  0
  -10.6769    0.6487   -0.4685 C   0  0  0  0  0  0  0  0  0  0  0  0
  -10.9532   -0.5164   -1.1890 C   0  0  0  0  0  0  0  0  0  0  0  0
   -9.9991   -1.5345   -1.2643 C   0  0  0  0  0  0  0  0  0  0  0  0
   -8.7666   -1.3885   -0.6212 C   0  0  0  0  0  0  0  0  0  0  0  0
   -6.2880    1.9761   -0.3412 N   0  0  0  0  0  0  0  0  0  0  0  0
   -5.2667    2.9896   -0.3967 C   0  0  0  0  0  0  0  0  0  0  0  0
   -5.5859    4.1441   -0.7921 O   0  0  0  0  0  0  0  0  0  0  0  0
   -3.8259    2.6986   -0.0280 C   0  0  2  0  0  0  0  0  0  0  0  0
   -2.9949    3.9789    0.2074 C   0  0  0  0  0  0  0  0  0  0  0  0
   -1.6158    3.6618    0.7263 C   0  0  0  0  0  0  0  0  0  0  0  0
   -0.4994    3.7245   -0.1237 C   0  0  0  0  0  0  0  0  0  0  0  0
    0.7796    3.4558    0.3738 C   0  0  0  0  0  0  0  0  0  0  0  0
    0.9546    3.1113    1.7183 C   0  0  0  0  0  0  0  0  0  0  0  0
    2.2348    2.8623    2.2062 O   0  0  0  0  0  0  0  0  0  0  0  0
   -0.1584    3.0232    2.5635 C   0  0  0  0  0  0  0  0  0  0  0  0
   -1.4367    3.2987    2.0712 C   0  0  0  0  0  0  0  0  0  0  0  0
   -3.2135    1.8308   -1.0411 N   0  0  0  0  0  0  0  0  0  0  0  0
   -3.1311    2.1616   -2.4382 C   0  0  0  0  0  0  0  0  0  0  0  0
   -3.3301    3.3439   -2.8259 O   0  0  0  0  0  0  0  0  0  0  0  0
   -2.8793    1.0937   -3.4657 C   0  0  0  0  0  0  0  0  0  0  0  0
   -1.5944    0.3037   -3.2155 C   0  0  0  0  0  0  0  0  0  0  0  0
   -0.1218    1.3745   -3.2683 S   0  0  0  0  0  0  0  0  0  0  0  0
    1.2131   -0.2886   -3.1423 S   0  0  0  0  0  0  0  0  0  0  0  0
    1.7909    0.0660   -1.4460 C   0  0  0  0  0  0  0  0  0  0  0  0
    1.0591   -0.7915   -0.3902 C   0  0  2  0  0  0  0  0  0  0  0  0
   -0.2296   -0.1823   -0.0266 N   0  0  0  0  0  0  0  0  0  0  0  0
   -1.1911   -0.7734    0.8674 C   0  0  0  0  0  0  0  0  0  0  0  0
   -1.7743   -0.0278    1.6997 O   0  0  0  0  0  0  0  0  0  0  0  0
   -1.5866   -2.2319    0.8173 C   0  0  2  0  0  0  0  0  0  0  0  0
   -0.5719   -3.1288    1.5448 C   0  0  0  0  0  0  0  0  0  0  0  0
   -1.1114   -4.5197    1.7141 C   0  0  0  0  0  0  0  0  0  0  0  0
   -0.8354   -5.5281    0.7420 N   0  0  0  0  0  0  0  0  0  0  0  0
   -1.8483   -4.7887    2.7000 O   0  0  0  0  0  0  0  0  0  0  0  0
   -1.7863   -2.6654   -0.5714 N   0  0  0  0  0  0  0  0  0  0  0  0
   -2.9937   -2.4609   -1.3281 C   0  0  0  0  0  0  0  0  0  0  0  0
   -2.9692   -2.6959   -2.5670 O   0  0  0  0  0  0  0  0  0  0  0  0
    1.9451   -0.9130    0.8285 C   0  0  0  0  0  0  0  0  0  0  0  0
    1.7566   -0.1420    1.8091 O   0  0  0  0  0  0  0  0  0  0  0  0
    3.0642   -1.8223    0.8496 N   0  0  0  0  0  0  0  0  0  0  0  0
    3.2426   -2.9329   -0.0745 C   0  0  0  0  0  0  0  0  0  0  0  0
    4.5745   -3.5789    0.2916 C   0  0  0  0  0  0  0  0  0  0  0  0
    5.0039   -2.9627    1.6229 C   0  0  0  0  0  0  0  0  0  0  0  0
    4.1469   -1.7091    1.8138 C   0  0  1  0  0  0  0  0  0  0  0  0
    4.9282   -0.4443    1.5613 C   0  0  0  0  0  0  0  0  0  0  0  0
    5.0062    0.4176    2.4774 O   0  0  0  0  0  0  0  0  0  0  0  0
    5.5372   -0.2051    0.2777 N   0  0  0  0  0  0  0  0  0  0  0  0
    6.2426    1.0290   -0.1004 C   0  0  2  0  0  0  0  0  0  0  0  0
    7.4398    1.3196    0.8304 C   0  0  0  0  0  0  0  0  0  0  0  0
    8.4194    0.1360    0.8950 C   0  0  0  0  0  0  0  0  0  0  0  0
    9.6264    0.4407    1.7915 C   0  0  0  0  0  0  0  0  0  0  0  0
   10.4254    1.5420    1.2528 N   0  0  0  0  0  0  0  0  0  0  0  0
   11.2834    1.4049    0.1104 C   0  0  0  0  0  0  0  0  0  0  0  0
   11.9908    2.5453   -0.3825 N   0  0  0  0  0  0  0  0  0  0  0  0
   11.4263    0.2536   -0.4676 N   0  0  0  0  0  0  0  0  0  0  0  0
    5.2949    2.2029   -0.1726 C   0  0  0  0  0  0  0  0  0  0  0  0
    4.0934    2.0720    0.1860 O   0  0  0  0  0  0  0  0  0  0  0  0
    5.7517    3.4645   -0.6820 N   0  0  0  0  0  0  0  0  0  0  0  0
    4.9032    4.6548   -0.6952 C   0  0  0  0  0  0  0  0  0  0  0  0
    4.6476    5.1449    0.7003 C   0  0  0  0  0  0  0  0  0  0  0  0
    3.3977    5.7475    1.0342 N   0  0  0  0  0  0  0  0  0  0  0  0
    5.5570    5.0753    1.5702 O   0  0  0  0  0  0  0  0  0  0  0  0
   -4.1186   -6.4703    0.1070 H   0  0  0  0  0  0  0  0  0  0  0  0
   -5.5661   -7.3732    0.6806 H   0  0  0  0  0  0  0  0  0  0  0  0
   -6.1760   -3.9423   -1.7739 H   0  0  0  0  0  0  0  0  0  0  0  0
   -4.5464   -4.6994   -1.6754 H   0  0  0  0  0  0  0  0  0  0  0  0
   -5.8904   -2.9758    0.5104 H   0  0  0  0  0  0  0  0  0  0  0  0
   -4.3023   -3.7676    0.6841 H   0  0  0  0  0  0  0  0  0  0  0  0
   -4.0704   -1.3667    0.1413 H   0  0  0  0  0  0  0  0  0  0  0  0
   -5.3389   -1.8792   -2.5658 H   0  0  0  0  0  0  0  0  0  0  0  0
   -5.1005    0.4358    0.4441 H   0  0  0  0  0  0  0  0  0  0  0  0
   -7.2551    0.5905    1.6823 H   0  0  0  0  0  0  0  0  0  0  0  0
   -6.8053   -1.0378    1.1708 H   0  0  0  0  0  0  0  0  0  0  0  0
   -9.2466    1.7063    0.7331 H   0  0  0  0  0  0  0  0  0  0  0  0
  -11.4176    1.4355   -0.4090 H   0  0  0  0  0  0  0  0  0  0  0  0
  -11.9070   -0.6309   -1.6875 H   0  0  0  0  0  0  0  0  0  0  0  0
  -10.2143   -2.4371   -1.8215 H   0  0  0  0  0  0  0  0  0  0  0  0
   -8.0367   -2.1853   -0.6896 H   0  0  0  0  0  0  0  0  0  0  0  0
   -7.2436    2.2626   -0.6514 H   0  0  0  0  0  0  0  0  0  0  0  0
   -3.8391    2.1598    0.9440 H   0  0  0  0  0  0  0  0  0  0  0  0
   -3.5141    4.6139    0.9590 H   0  0  0  0  0  0  0  0  0  0  0  0
   -2.9272    4.5876   -0.7182 H   0  0  0  0  0  0  0  0  0  0  0  0
   -0.6176    3.9881   -1.1673 H   0  0  0  0  0  0  0  0  0  0  0  0
    1.6349    3.5172   -0.2861 H   0  0  0  0  0  0  0  0  0  0  0  0
    2.3938    2.6080    3.1740 H   0  0  0  0  0  0  0  0  0  0  0  0
   -0.0332    2.7498    3.6034 H   0  0  0  0  0  0  0  0  0  0  0  0
   -2.2869    3.2359    2.7391 H   0  0  0  0  0  0  0  0  0  0  0  0
   -2.9652    0.8620   -0.7457 H   0  0  0  0  0  0  0  0  0  0  0  0
   -3.7384    0.3907   -3.4597 H   0  0  0  0  0  0  0  0  0  0  0  0
   -2.8301    1.5491   -4.4790 H   0  0  0  0  0  0  0  0  0  0  0  0
   -1.6400   -0.2171   -2.2424 H   0  0  0  0  0  0  0  0  0  0  0  0
   -1.5046   -0.4693   -4.0084 H   0  0  0  0  0  0  0  0  0  0  0  0
    1.7186    1.1481   -1.2108 H   0  0  0  0  0  0  0  0  0  0  0  0
    2.8754   -0.1763   -1.4431 H   0  0  0  0  0  0  0  0  0  0  0  0
    0.8835   -1.7963   -0.8181 H   0  0  0  0  0  0  0  0  0  0  0  0
   -0.3553    0.8378   -0.2109 H   0  0  0  0  0  0  0  0  0  0  0  0
   -2.5370   -2.3432    1.3804 H   0  0  0  0  0  0  0  0  0  0  0  0
   -0.3503   -2.7052    2.5491 H   0  0  0  0  0  0  0  0  0  0  0  0
    0.3797   -3.1797    0.9885 H   0  0  0  0  0  0  0  0  0  0  0  0
   -0.2320   -5.3222   -0.0848 H   0  0  0  0  0  0  0  0  0  0  0  0
   -1.2376   -6.4857    0.8483 H   0  0  0  0  0  0  0  0  0  0  0  0
   -0.9744   -3.0739   -1.0863 H   0  0  0  0  0  0  0  0  0  0  0  0
    2.4191   -3.6664    0.0479 H   0  0  0  0  0  0  0  0  0  0  0  0
    3.2670   -2.5686   -1.1235 H   0  0  0  0  0  0  0  0  0  0  0  0
    5.3328   -3.3537   -0.4897 H   0  0  0  0  0  0  0  0  0  0  0  0
    4.4725   -4.6827    0.3788 H   0  0  0  0  0  0  0  0  0  0  0  0
    6.0951   -2.7454    1.6313 H   0  0  0  0  0  0  0  0  0  0  0  0
    4.7878   -3.6830    2.4427 H   0  0  0  0  0  0  0  0  0  0  0  0
    3.7299   -1.7013    2.8462 H   0  0  0  0  0  0  0  0  0  0  0  0
    5.4444   -0.9390   -0.4587 H   0  0  0  0  0  0  0  0  0  0  0  0
    6.6475    0.8892   -1.1277 H   0  0  0  0  0  0  0  0  0  0  0  0
    7.9840    2.2074    0.4428 H   0  0  0  0  0  0  0  0  0  0  0  0
    7.0904    1.5742    1.8525 H   0  0  0  0  0  0  0  0  0  0  0  0
    8.7652   -0.1217   -0.1288 H   0  0  0  0  0  0  0  0  0  0  0  0
    7.9001   -0.7537    1.3111 H   0  0  0  0  0  0  0  0  0  0  0  0
   10.2596   -0.4672    1.8914 H   0  0  0  0  0  0  0  0  0  0  0  0
    9.2680    0.7080    2.8097 H   0  0  0  0  0  0  0  0  0  0  0  0
   10.3994    2.4598    1.7517 H   0  0  0  0  0  0  0  0  0  0  0  0
   11.8798    3.4755    0.0783 H   0  0  0  0  0  0  0  0  0  0  0  0
   12.6240    2.4682   -1.2094 H   0  0  0  0  0  0  0  0  0  0  0  0
   12.0475    0.1286   -1.2978 H   0  0  0  0  0  0  0  0  0  0  0  0
    6.7147    3.5368   -1.0807 H   0  0  0  0  0  0  0  0  0  0  0  0
    3.9452    4.4214   -1.2075 H   0  0  0  0  0  0  0  0  0  0  0  0
    5.4087    5.4632   -1.2651 H   0  0  0  0  0  0  0  0  0  0  0  0
    3.2182    6.0843    2.0061 H   0  0  0  0  0  0  0  0  0  0  0  0
    2.6518    5.8652    0.3134 H   0  0  0  0  0  0  0  0  0  0  0  0
  1  2  1  0
  2  3  2  0
  2  4  1  0
  4  5  1  0
  5  6  1  0
  6  7  1  0
  7  8  1  0
  8  9  2  0
  8 10  1  0
 10 11  1  0
 11 12  1  0
 12 13  2  0
 13 14  1  0
 14 15  2  0
 15 16  1  0
 16 17  2  0
 10 18  1  0
 18 19  1  0
 19 20  2  0
 19 21  1  0
 21 22  1  0
 22 23  1  0
 23 24  2  0
 24 25  1  0
 25 26  2  0
 26 27  1  0
 26 28  1  0
 28 29  2  0
 21 30  1  0
 30 31  1  0
 31 32  2  0
 31 33  1  0
 33 34  1  0
 34 35  1  0
 35 36  1  0
 36 37  1  0
 37 38  1  0
 38 39  1  0
 39 40  1  0
 40 41  2  0
 40 42  1  0
 42 43  1  0
 43 44  1  0
 44 45  1  0
 44 46  2  0
 42 47  1  0
 47 48  1  0
 48 49  2  0
 38 50  1  0
 50 51  2  0
 50 52  1  0
 52 53  1  0
 53 54  1  0
 54 55  1  0
 55 56  1  0
 56 57  1  0
 57 58  2  0
 57 59  1  0
 59 60  1  0
 60 61  1  0
 61 62  1  0
 62 63  1  0
 63 64  1  0
 64 65  1  0
 65 66  1  0
 65 67  2  3
 60 68  1  0
 68 69  2  0
 68 70  1  0
 70 71  1  0
 71 72  1  0
 72 73  1  0
 72 74  2  0
 48  6  1  0
 56 52  1  0
 17 12  1  0
 29 23  1  0
  1 75  1  0
  1 76  1  0
  4 77  1  0
  4 78  1  0
  5 79  1  0
  5 80  1  0
  6 81  1  1
  7 82  1  0
 10 83  1  1
 11 84  1  0
 11 85  1  0
 13 86  1  0
 14 87  1  0
 15 88  1  0
 16 89  1  0
 17 90  1  0
 18 91  1  0
 21 92  1  1
 22 93  1  0
 22 94  1  0
 24 95  1  0
 25 96  1  0
 27 97  1  0
 28 98  1  0
 29 99  1  0
 30100  1  0
 33101  1  0
 33102  1  0
 34103  1  0
 34104  1  0
 37105  1  0
 37106  1  0
 38107  1  6
 39108  1  0
 42109  1  1
 43110  1  0
 43111  1  0
 45112  1  0
 45113  1  0
 47114  1  0
 53115  1  0
 53116  1  0
 54117  1  0
 54118  1  0
 55119  1  0
 55120  1  0
 56121  1  1
 59122  1  0
 60123  1  6
 61124  1  0
 61125  1  0
 62126  1  0
 62127  1  0
 63128  1  0
 63129  1  0
 64130  1  0
 66131  1  0
 66132  1  0
 67133  1  0
 70134  1  0
 71135  1  0
 71136  1  0
 73137  1  0
 73138  1  0
M  END
$$$$
