
     RDKit          3D

200207  0  0  0  0  0  0  0  0999 V2000
   13.3289   -2.4300    1.2974 C   0  0  0  0  0  0  0  0  0  0  0  0
   11.8858   -1.9243    1.2858 C   0  0  0  0  0  0  0  0  0  0  0  0
   11.7994   -0.3958    1.5023 C   0  0  2  0  0  0  0  0  0  0  0  0
   10.3597    0.0581    1.6418 C   0  0  0  0  0  0  0  0  0  0  0  0
    9.5023   -0.4250    0.8541 O   0  0  0  0  0  0  0  0  0  0  0  0
    9.9722    1.0793    2.5991 N   0  0  0  0  0  0  0  0  0  0  0  0
   10.9601    2.1115    2.9738 C   0  0  0  0  0  0  0  0  0  0  0  0
   10.3395    3.2493    3.7957 C   0  0  0  0  0  0  0  0  0  0  0  0
    9.0210    3.7035    3.1678 C   0  0  0  0  0  0  0  0  0  0  0  0
    8.0089    2.5503    3.0066 C   0  0  0  0  0  0  0  0  0  0  0  0
    8.6266    1.1493    3.2222 C   0  0  1  0  0  0  0  0  0  0  0  0
    7.6780    0.0562    2.7886 C   0  0  0  0  0  0  0  0  0  0  0  0
    7.8438   -1.1156    3.2263 O   0  0  0  0  0  0  0  0  0  0  0  0
    6.6349    0.3399    1.8949 O   0  0  0  0  0  0  0  0  0  0  0  0
    5.6834   -0.6262    1.4451 C   0  0  2  0  0  0  0  0  0  0  0  0
    4.7196    0.0251    0.4342 C   0  0  0  0  0  0  0  0  0  0  0  0
    5.3597    0.3098   -0.9354 C   0  0  0  0  0  0  0  0  0  0  0  0
    6.4286    1.3742   -0.8827 C   0  0  0  0  0  0  0  0  0  0  0  0
    7.7594    1.0513   -1.1760 C   0  0  0  0  0  0  0  0  0  0  0  0
    8.7503    2.0319   -1.1311 C   0  0  0  0  0  0  0  0  0  0  0  0
    8.4290    3.3582   -0.7949 C   0  0  0  0  0  0  0  0  0  0  0  0
    9.4067    4.3635   -0.7236 O   0  0  0  0  0  0  0  0  0  0  0  0
   10.7964    4.1529   -0.9560 C   0  0  0  0  0  0  0  0  0  0  0  0
    7.0959    3.6969   -0.5153 C   0  0  0  0  0  0  0  0  0  0  0  0
    6.8043    5.0276   -0.1771 O   0  0  0  0  0  0  0  0  0  0  0  0
    5.5120    5.5024    0.1851 C   0  0  0  0  0  0  0  0  0  0  0  0
    6.0983    2.7019   -0.5679 C   0  0  0  0  0  0  0  0  0  0  0  0
    4.8903   -1.1688    2.6161 C   0  0  0  0  0  0  0  0  0  0  0  0
    4.6171   -2.5440    2.7065 C   0  0  0  0  0  0  0  0  0  0  0  0
    3.8476   -3.0524    3.7717 C   0  0  0  0  0  0  0  0  0  0  0  0
    3.5365   -4.4164    3.8974 O   0  0  0  0  0  0  0  0  0  0  0  0
    3.8666   -5.4292    2.9462 C   0  0  0  0  0  0  0  0  0  0  0  0
    3.1071   -5.2306    1.6681 C   0  0  0  0  0  0  0  0  0  0  0  0
    3.7035   -5.3641    0.5652 O   0  0  0  0  0  0  0  0  0  0  0  0
    1.7094   -4.9155    1.6997 N   0  0  0  0  0  0  0  0  0  0  0  0
    0.9736   -4.5978    0.4767 C   0  0  0  0  0  0  0  0  0  0  0  0
   -0.4795   -4.2350    0.7928 C   0  0  0  0  0  0  0  0  0  0  0  0
   -1.1887   -3.8523   -0.4260 N   0  0  0  0  0  0  0  0  0  0  0  0
   -1.6346   -4.8115   -1.3949 C   0  0  0  0  0  0  0  0  0  0  0  0
   -1.4018   -6.0398   -1.2313 O   0  0  0  0  0  0  0  0  0  0  0  0
   -2.3697   -4.3554   -2.6189 C   0  0  0  0  0  0  0  0  0  0  0  0
   -3.4618   -3.5081   -2.2633 O   0  0  0  0  0  0  0  0  0  0  0  0
   -4.6327   -3.9247   -1.6092 C   0  0  0  0  0  0  0  0  0  0  0  0
   -4.9018   -5.2759   -1.3195 C   0  0  0  0  0  0  0  0  0  0  0  0
   -6.0808   -5.6320   -0.6602 C   0  0  0  0  0  0  0  0  0  0  0  0
   -7.0040   -4.6516   -0.2906 C   0  0  0  0  0  0  0  0  0  0  0  0
   -6.7582   -3.3014   -0.5854 C   0  0  0  0  0  0  0  0  0  0  0  0
   -5.5631   -2.9480   -1.2360 C   0  0  0  0  0  0  0  0  0  0  0  0
   -7.7543   -2.2385   -0.1816 C   0  0  1  0  0  0  0  0  0  0  0  0
   -7.2524   -1.4709    1.0560 C   0  0  0  0  0  0  0  0  0  0  0  0
   -8.1216   -0.2522    1.4137 C   0  0  0  0  0  0  0  0  0  0  0  0
   -9.5166   -0.6357    1.8407 C   0  0  0  0  0  0  0  0  0  0  0  0
   -9.8188   -0.8108    3.1971 C   0  0  0  0  0  0  0  0  0  0  0  0
  -11.1120   -1.1586    3.5924 C   0  0  0  0  0  0  0  0  0  0  0  0
  -12.1198   -1.3673    2.6311 C   0  0  0  0  0  0  0  0  0  0  0  0
  -13.4313   -1.7161    2.9893 O   0  0  0  0  0  0  0  0  0  0  0  0
  -13.8901   -1.8551    4.3299 C   0  0  0  0  0  0  0  0  0  0  0  0
  -11.8145   -1.2314    1.2687 C   0  0  0  0  0  0  0  0  0  0  0  0
  -12.8186   -1.5009    0.3259 O   0  0  0  0  0  0  0  0  0  0  0  0
  -12.5772   -1.7202   -1.0610 C   0  0  0  0  0  0  0  0  0  0  0  0
  -10.5213   -0.8361    0.8828 C   0  0  0  0  0  0  0  0  0  0  0  0
   -7.9664   -1.3291   -1.2624 O   0  0  0  0  0  0  0  0  0  0  0  0
   -8.7590   -1.6254   -2.3768 C   0  0  0  0  0  0  0  0  0  0  0  0
   -9.3084   -2.7567   -2.4827 O   0  0  0  0  0  0  0  0  0  0  0  0
   -9.0334   -0.5440   -3.3942 C   0  0  2  0  0  0  0  0  0  0  0  0
   -9.3218   -1.1109   -4.7999 C   0  0  0  0  0  0  0  0  0  0  0  0
   -8.0518   -1.6686   -5.4543 C   0  0  0  0  0  0  0  0  0  0  0  0
   -6.9585   -0.5981   -5.5096 C   0  0  0  0  0  0  0  0  0  0  0  0
   -6.6593   -0.0526   -4.1115 C   0  0  0  0  0  0  0  0  0  0  0  0
   -7.8994    0.3936   -3.4615 N   0  0  0  0  0  0  0  0  0  0  0  0
   -7.8386    1.5265   -2.5749 C   0  0  0  0  0  0  0  0  0  0  0  0
   -6.9135    1.5863   -1.7197 O   0  0  0  0  0  0  0  0  0  0  0  0
   -8.8204    2.6774   -2.6651 C   0  0  1  0  0  0  0  0  0  0  0  0
   -9.2958    2.9511   -4.1135 C   0  0  0  0  0  0  0  0  0  0  0  0
   -8.1669    3.4603   -5.0109 C   0  0  0  0  0  0  0  0  0  0  0  0
   -9.9502    2.5081   -1.6549 C   0  0  0  0  0  0  0  0  0  0  0  0
   -9.6851    2.7610   -0.3008 C   0  0  0  0  0  0  0  0  0  0  0  0
  -10.6840    2.6236    0.6819 C   0  0  0  0  0  0  0  0  0  0  0  0
  -10.4044    2.8807    2.0334 O   0  0  0  0  0  0  0  0  0  0  0  0
   -9.1637    3.3667    2.5355 C   0  0  0  0  0  0  0  0  0  0  0  0
  -11.9857    2.2201    0.2930 C   0  0  0  0  0  0  0  0  0  0  0  0
  -13.0506    2.0387    1.1969 O   0  0  0  0  0  0  0  0  0  0  0  0
  -13.0105    2.2294    2.6068 C   0  0  0  0  0  0  0  0  0  0  0  0
  -12.2620    1.9779   -1.0610 C   0  0  0  0  0  0  0  0  0  0  0  0
  -13.5698    1.6018   -1.4114 O   0  0  0  0  0  0  0  0  0  0  0  0
  -14.0190    1.3706   -2.7431 C   0  0  0  0  0  0  0  0  0  0  0  0
  -11.2464    2.1107   -2.0236 C   0  0  0  0  0  0  0  0  0  0  0  0
    3.3642   -2.1719    4.7460 C   0  0  0  0  0  0  0  0  0  0  0  0
    3.6251   -0.8030    4.6573 C   0  0  0  0  0  0  0  0  0  0  0  0
    4.3774   -0.3002    3.5944 C   0  0  0  0  0  0  0  0  0  0  0  0
   12.4795    0.3847    0.3895 C   0  0  0  0  0  0  0  0  0  0  0  0
   12.0699    0.2464   -0.9441 C   0  0  0  0  0  0  0  0  0  0  0  0
   12.6657    1.0081   -1.9629 C   0  0  0  0  0  0  0  0  0  0  0  0
   12.2665    0.8905   -3.3046 O   0  0  0  0  0  0  0  0  0  0  0  0
   11.2606   -0.0007   -3.7764 C   0  0  0  0  0  0  0  0  0  0  0  0
   13.6829    1.9245   -1.6523 C   0  0  0  0  0  0  0  0  0  0  0  0
   14.2167    2.6622   -2.7267 O   0  0  0  0  0  0  0  0  0  0  0  0
   15.2135    3.6750   -2.6487 C   0  0  0  0  0  0  0  0  0  0  0  0
   14.1132    2.0678   -0.3082 C   0  0  0  0  0  0  0  0  0  0  0  0
   15.1288    2.9834    0.0100 O   0  0  0  0  0  0  0  0  0  0  0  0
   15.6183    3.2387    1.3228 C   0  0  0  0  0  0  0  0  0  0  0  0
   13.5076    1.2864    0.6945 C   0  0  0  0  0  0  0  0  0  0  0  0
   13.3348   -3.5360    1.1984 H   0  0  0  0  0  0  0  0  0  0  0  0
   13.8273   -2.1569    2.2517 H   0  0  0  0  0  0  0  0  0  0  0  0
   13.9003   -1.9992    0.4483 H   0  0  0  0  0  0  0  0  0  0  0  0
   11.3344   -2.4363    2.1051 H   0  0  0  0  0  0  0  0  0  0  0  0
   11.4071   -2.2212    0.3283 H   0  0  0  0  0  0  0  0  0  0  0  0
   12.3142   -0.2047    2.4670 H   0  0  0  0  0  0  0  0  0  0  0  0
   11.7786    1.6604    3.5718 H   0  0  0  0  0  0  0  0  0  0  0  0
   11.3926    2.5532    2.0517 H   0  0  0  0  0  0  0  0  0  0  0  0
   11.0471    4.1056    3.8355 H   0  0  0  0  0  0  0  0  0  0  0  0
   10.1605    2.9103    4.8395 H   0  0  0  0  0  0  0  0  0  0  0  0
    8.5756    4.5068    3.7939 H   0  0  0  0  0  0  0  0  0  0  0  0
    9.2381    4.1461    2.1704 H   0  0  0  0  0  0  0  0  0  0  0  0
    7.1737    2.6883    3.7283 H   0  0  0  0  0  0  0  0  0  0  0  0
    7.5766    2.6216    1.9885 H   0  0  0  0  0  0  0  0  0  0  0  0
    8.7602    1.0165    4.3191 H   0  0  0  0  0  0  0  0  0  0  0  0
    6.2307   -1.4541    0.9405 H   0  0  0  0  0  0  0  0  0  0  0  0
    4.2995    0.9617    0.8615 H   0  0  0  0  0  0  0  0  0  0  0  0
    3.8640   -0.6648    0.2589 H   0  0  0  0  0  0  0  0  0  0  0  0
    5.7624   -0.6384   -1.3548 H   0  0  0  0  0  0  0  0  0  0  0  0
    4.5640    0.6507   -1.6327 H   0  0  0  0  0  0  0  0  0  0  0  0
    8.0339    0.0371   -1.4385 H   0  0  0  0  0  0  0  0  0  0  0  0
    9.7659    1.7493   -1.3579 H   0  0  0  0  0  0  0  0  0  0  0  0
   10.9614    3.8015   -1.9964 H   0  0  0  0  0  0  0  0  0  0  0  0
   11.1958    3.4089   -0.2361 H   0  0  0  0  0  0  0  0  0  0  0  0
   11.3383    5.1100   -0.8135 H   0  0  0  0  0  0  0  0  0  0  0  0
    5.1471    4.9649    1.0859 H   0  0  0  0  0  0  0  0  0  0  0  0
    4.8033    5.3625   -0.6583 H   0  0  0  0  0  0  0  0  0  0  0  0
    5.5761    6.5847    0.4189 H   0  0  0  0  0  0  0  0  0  0  0  0
    5.0662    2.9501   -0.3610 H   0  0  0  0  0  0  0  0  0  0  0  0
    5.0047   -3.2066    1.9456 H   0  0  0  0  0  0  0  0  0  0  0  0
    4.9630   -5.4366    2.7631 H   0  0  0  0  0  0  0  0  0  0  0  0
    3.5879   -6.4165    3.3691 H   0  0  0  0  0  0  0  0  0  0  0  0
    1.2229   -4.8851    2.6249 H   0  0  0  0  0  0  0  0  0  0  0  0
    1.4616   -3.7365   -0.0301 H   0  0  0  0  0  0  0  0  0  0  0  0
    1.0028   -5.4751   -0.2041 H   0  0  0  0  0  0  0  0  0  0  0  0
   -0.9962   -5.0915    1.2782 H   0  0  0  0  0  0  0  0  0  0  0  0
   -0.4915   -3.3789    1.5025 H   0  0  0  0  0  0  0  0  0  0  0  0
   -1.4317   -2.8450   -0.5629 H   0  0  0  0  0  0  0  0  0  0  0  0
   -2.7304   -5.2179   -3.2200 H   0  0  0  0  0  0  0  0  0  0  0  0
   -1.6660   -3.7769   -3.2526 H   0  0  0  0  0  0  0  0  0  0  0  0
   -4.2100   -6.0581   -1.5973 H   0  0  0  0  0  0  0  0  0  0  0  0
   -6.2801   -6.6719   -0.4354 H   0  0  0  0  0  0  0  0  0  0  0  0
   -7.9111   -4.9468    0.2220 H   0  0  0  0  0  0  0  0  0  0  0  0
   -5.3499   -1.9081   -1.4497 H   0  0  0  0  0  0  0  0  0  0  0  0
   -8.7221   -2.7192    0.0829 H   0  0  0  0  0  0  0  0  0  0  0  0
   -6.2196   -1.1040    0.8670 H   0  0  0  0  0  0  0  0  0  0  0  0
   -7.2083   -2.1609    1.9274 H   0  0  0  0  0  0  0  0  0  0  0  0
   -7.6208    0.3007    2.2376 H   0  0  0  0  0  0  0  0  0  0  0  0
   -8.1673    0.4494    0.5543 H   0  0  0  0  0  0  0  0  0  0  0  0
   -9.0554   -0.6659    3.9515 H   0  0  0  0  0  0  0  0  0  0  0  0
  -11.3168   -1.2679    4.6484 H   0  0  0  0  0  0  0  0  0  0  0  0
  -13.7665   -0.8963    4.8766 H   0  0  0  0  0  0  0  0  0  0  0  0
  -14.9668   -2.1214    4.3185 H   0  0  0  0  0  0  0  0  0  0  0  0
  -13.3295   -2.6644    4.8435 H   0  0  0  0  0  0  0  0  0  0  0  0
  -12.1433   -0.8156   -1.5306 H   0  0  0  0  0  0  0  0  0  0  0  0
  -11.8858   -2.5788   -1.1934 H   0  0  0  0  0  0  0  0  0  0  0  0
  -13.5377   -1.9523   -1.5643 H   0  0  0  0  0  0  0  0  0  0  0  0
  -10.2910   -0.6788   -0.1600 H   0  0  0  0  0  0  0  0  0  0  0  0
   -9.9452   -0.0129   -3.0605 H   0  0  0  0  0  0  0  0  0  0  0  0
   -9.7268   -0.2973   -5.4404 H   0  0  0  0  0  0  0  0  0  0  0  0
  -10.1007   -1.9024   -4.7531 H   0  0  0  0  0  0  0  0  0  0  0  0
   -8.2886   -2.0039   -6.4868 H   0  0  0  0  0  0  0  0  0  0  0  0
   -7.6862   -2.5506   -4.8841 H   0  0  0  0  0  0  0  0  0  0  0  0
   -7.2874    0.2354   -6.1686 H   0  0  0  0  0  0  0  0  0  0  0  0
   -6.0329   -1.0360   -5.9414 H   0  0  0  0  0  0  0  0  0  0  0  0
   -5.9425    0.7924   -4.2065 H   0  0  0  0  0  0  0  0  0  0  0  0
   -6.1790   -0.8422   -3.4961 H   0  0  0  0  0  0  0  0  0  0  0  0
   -8.2690    3.5954   -2.3572 H   0  0  0  0  0  0  0  0  0  0  0  0
   -9.7269    2.0362   -4.5698 H   0  0  0  0  0  0  0  0  0  0  0  0
  -10.0894    3.7299   -4.0963 H   0  0  0  0  0  0  0  0  0  0  0  0
   -7.3610    2.7037   -5.0982 H   0  0  0  0  0  0  0  0  0  0  0  0
   -8.5657    3.6648   -6.0268 H   0  0  0  0  0  0  0  0  0  0  0  0
   -7.7422    4.4017   -4.6025 H   0  0  0  0  0  0  0  0  0  0  0  0
   -8.6863    3.0651   -0.0189 H   0  0  0  0  0  0  0  0  0  0  0  0
   -8.3507    2.6446    2.3175 H   0  0  0  0  0  0  0  0  0  0  0  0
   -8.9300    4.3538    2.0837 H   0  0  0  0  0  0  0  0  0  0  0  0
   -9.2421    3.4883    3.6350 H   0  0  0  0  0  0  0  0  0  0  0  0
  -12.7798    3.2890    2.8445 H   0  0  0  0  0  0  0  0  0  0  0  0
  -12.2658    1.5489    3.0683 H   0  0  0  0  0  0  0  0  0  0  0  0
  -14.0067    1.9867    3.0295 H   0  0  0  0  0  0  0  0  0  0  0  0
  -15.0949    1.1025   -2.7207 H   0  0  0  0  0  0  0  0  0  0  0  0
  -13.8939    2.2901   -3.3529 H   0  0  0  0  0  0  0  0  0  0  0  0
  -13.4548    0.5304   -3.1994 H   0  0  0  0  0  0  0  0  0  0  0  0
  -11.4712    1.9048   -3.0583 H   0  0  0  0  0  0  0  0  0  0  0  0
    2.7740   -2.5505    5.5710 H   0  0  0  0  0  0  0  0  0  0  0  0
    3.2384   -0.1296    5.4112 H   0  0  0  0  0  0  0  0  0  0  0  0
    4.5620    0.7652    3.5340 H   0  0  0  0  0  0  0  0  0  0  0  0
   11.2718   -0.4416   -1.1821 H   0  0  0  0  0  0  0  0  0  0  0  0
   11.1657    0.1100   -4.8759 H   0  0  0  0  0  0  0  0  0  0  0  0
   10.2827    0.2431   -3.3111 H   0  0  0  0  0  0  0  0  0  0  0  0
   11.5424   -1.0502   -3.5480 H   0  0  0  0  0  0  0  0  0  0  0  0
   15.3950    4.0774   -3.6662 H   0  0  0  0  0  0  0  0  0  0  0  0
   16.1665    3.2488   -2.2710 H   0  0  0  0  0  0  0  0  0  0  0  0
   14.8649    4.5087   -2.0034 H   0  0  0  0  0  0  0  0  0  0  0  0
   16.0615    2.3155    1.7520 H   0  0  0  0  0  0  0  0  0  0  0  0
   16.4061    4.0176    1.2695 H   0  0  0  0  0  0  0  0  0  0  0  0
   14.7965    3.6094    1.9716 H   0  0  0  0  0  0  0  0  0  0  0  0
   13.8212    1.3870    1.7243 H   0  0  0  0  0  0  0  0  0  0  0  0
  1  2  1  0
  2  3  1  0
  3  4  1  0
  4  5  2  0
  4  6  1  0
  6  7  1  0
  7  8  1  0
  8  9  1  0
  9 10  1  0
 10 11  1  0
 11 12  1  0
 12 13  2  0
 12 14  1  0
 14 15  1  0
 15 16  1  0
 16 17  1  0
 17 18  1  0
 18 19  2  0
 19 20  1  0
 20 21  2  0
 21 22  1  0
 22 23  1  0
 21 24  1  0
 24 25  1  0
 25 26  1  0
 24 27  2  0
 15 28  1  0
 28 29  2  0
 29 30  1  0
 30 31  1  0
 31 32  1  0
 32 33  1  0
 33 34  2  0
 33 35  1  0
 35 36  1  0
 36 37  1  0
 37 38  1  0
 38 39  1  0
 39 40  2  0
 39 41  1  0
 41 42  1  0
 42 43  1  0
 43 44  2  0
 44 45  1  0
 45 46  2  0
 46 47  1  0
 47 48  2  0
 47 49  1  0
 49 50  1  0
 50 51  1  0
 51 52  1  0
 52 53  2  0
 53 54  1  0
 54 55  2  0
 55 56  1  0
 56 57  1  0
 55 58  1  0
 58 59  1  0
 59 60  1  0
 58 61  2  0
 49 62  1  0
 62 63  1  0
 63 64  2  0
 63 65  1  0
 65 66  1  0
 66 67  1  0
 67 68  1  0
 68 69  1  0
 69 70  1  0
 70 71  1  0
 71 72  2  0
 71 73  1  0
 73 74  1  0
 74 75  1  0
 73 76  1  0
 76 77  2  0
 77 78  1  0
 78 79  1  0
 79 80  1  0
 78 81  2  0
 81 82  1  0
 82 83  1  0
 81 84  1  0
 84 85  1  0
 85 86  1  0
 84 87  2  0
 30 88  2  0
 88 89  1  0
 89 90  2  0
  3 91  1  0
 91 92  2  0
 92 93  1  0
 93 94  1  0
 94 95  1  0
 93 96  2  0
 96 97  1  0
 97 98  1  0
 96 99  1  0
 99100  1  0
100101  1  0
 99102  2  0
 11  6  1  0
 27 18  1  0
 90 28  1  0
102 91  1  0
 48 43  1  0
 61 52  1  0
 70 65  1  0
 87 76  1  0
  1103  1  0
  1104  1  0
  1105  1  0
  2106  1  0
  2107  1  0
  3108  1  1
  7109  1  0
  7110  1  0
  8111  1  0
  8112  1  0
  9113  1  0
  9114  1  0
 10115  1  0
 10116  1  0
 11117  1  1
 15118  1  6
 16119  1  0
 16120  1  0
 17121  1  0
 17122  1  0
 19123  1  0
 20124  1  0
 23125  1  0
 23126  1  0
 23127  1  0
 26128  1  0
 26129  1  0
 26130  1  0
 27131  1  0
 29132  1  0
 32133  1  0
 32134  1  0
 35135  1  0
 36136  1  0
 36137  1  0
 37138  1  0
 37139  1  0
 38140  1  0
 41141  1  0
 41142  1  0
 44143  1  0
 45144  1  0
 46145  1  0
 48146  1  0
 49147  1  1
 50148  1  0
 50149  1  0
 51150  1  0
 51151  1  0
 53152  1  0
 54153  1  0
 57154  1  0
 57155  1  0
 57156  1  0
 60157  1  0
 60158  1  0
 60159  1  0
 61160  1  0
 65161  1  1
 66162  1  0
 66163  1  0
 67164  1  0
 67165  1  0
 68166  1  0
 68167  1  0
 69168  1  0
 69169  1  0
 73170  1  1
 74171  1  0
 74172  1  0
 75173  1  0
 75174  1  0
 75175  1  0
 77176  1  0
 80177  1  0
 80178  1  0
 80179  1  0
 83180  1  0
 83181  1  0
 83182  1  0
 86183  1  0
 86184  1  0
 86185  1  0
 87186  1  0
 88187  1  0
 89188  1  0
 90189  1  0
 92190  1  0
 95191  1  0
 95192  1  0
 95193  1  0
 98194  1  0
 98195  1  0
 98196  1  0
101197  1  0
101198  1  0
101199  1  0
102200  1  0
M  END
$$$$
