
     RDKit          3D

 46 49  0  0  0  0  0  0  0  0999 V2000
   -1.3059   -3.0288    1.5455 C   0  0  0  0  0  0  0  0  0  0  0  0
   -1.3033   -1.6507    2.2176 C   0  0  1  0  0  0  0  0  0  0  0  0
    0.1237   -1.0839    2.2982 C   0  0  0  0  0  0  0  0  0  0  0  0
    0.5520   -0.6488    1.0126 O   0  0  0  0  0  0  0  0  0  0  0  0
   -0.3183    0.0411    0.1658 C   0  0  0  0  0  0  0  0  0  0  0  0
   -1.6997    0.0321    0.4399 C   0  0  0  0  0  0  0  0  0  0  0  0
   -2.1889   -0.7281    1.4737 N   0  0  0  0  0  0  0  0  0  0  0  0
   -3.5241   -0.7229    1.7658 C   0  0  0  0  0  0  0  0  0  0  0  0
   -4.4342    0.0535    1.0278 C   0  0  0  0  0  0  0  0  0  0  0  0
   -5.8780    0.0327    1.3894 C   0  0  0  0  0  0  0  0  0  0  0  0
   -6.8058    0.7848    0.6734 O   0  0  0  0  0  0  0  0  0  0  0  0
   -6.2805   -0.6700    2.3562 O   0  0  0  0  0  0  0  0  0  0  0  0
   -3.9464    0.8204   -0.0497 C   0  0  0  0  0  0  0  0  0  0  0  0
   -4.7364    1.5181   -0.7442 O   0  0  0  0  0  0  0  0  0  0  0  0
   -2.5736    0.8074   -0.3548 C   0  0  0  0  0  0  0  0  0  0  0  0
   -2.0530    1.5426   -1.4368 C   0  0  0  0  0  0  0  0  0  0  0  0
   -0.6876    1.5060   -1.7287 C   0  0  0  0  0  0  0  0  0  0  0  0
   -0.2172    2.1998   -2.7954 F   0  0  0  0  0  0  0  0  0  0  0  0
    0.1862    0.7517   -0.9327 C   0  0  0  0  0  0  0  0  0  0  0  0
    1.5924    0.7265   -1.2211 N   0  0  0  0  0  0  0  0  0  0  0  0
    2.3681    1.9714   -1.1805 C   0  0  0  0  0  0  0  0  0  0  0  0
    3.8030    1.7330   -0.6580 C   0  0  0  0  0  0  0  0  0  0  0  0
    4.2047    0.3077   -0.6841 N   0  0  0  0  0  0  0  0  0  0  0  0
    5.6678    0.1859   -0.5995 C   0  0  0  0  0  0  0  0  0  0  0  0
    3.6997   -0.3669   -1.8906 C   0  0  0  0  0  0  0  0  0  0  0  0
    2.1804   -0.4960   -1.7806 C   0  0  0  0  0  0  0  0  0  0  0  0
   -0.9269   -2.9572    0.5036 H   0  0  0  0  0  0  0  0  0  0  0  0
   -2.3390   -3.4355    1.5209 H   0  0  0  0  0  0  0  0  0  0  0  0
   -0.6670   -3.7365    2.1154 H   0  0  0  0  0  0  0  0  0  0  0  0
   -1.6702   -1.7743    3.2620 H   0  0  0  0  0  0  0  0  0  0  0  0
    0.8354   -1.8398    2.6933 H   0  0  0  0  0  0  0  0  0  0  0  0
    0.1286   -0.2129    2.9888 H   0  0  0  0  0  0  0  0  0  0  0  0
   -3.8910   -1.3429    2.5761 H   0  0  0  0  0  0  0  0  0  0  0  0
   -7.7884    0.7715    0.9194 H   0  0  0  0  0  0  0  0  0  0  0  0
   -2.7017    2.1384   -2.0674 H   0  0  0  0  0  0  0  0  0  0  0  0
    2.4187    2.3898   -2.2092 H   0  0  0  0  0  0  0  0  0  0  0  0
    1.8614    2.7237   -0.5360 H   0  0  0  0  0  0  0  0  0  0  0  0
    3.8609    2.0914    0.3929 H   0  0  0  0  0  0  0  0  0  0  0  0
    4.5018    2.3581   -1.2606 H   0  0  0  0  0  0  0  0  0  0  0  0
    5.9544   -0.8825   -0.4951 H   0  0  0  0  0  0  0  0  0  0  0  0
    6.0451    0.7184    0.3003 H   0  0  0  0  0  0  0  0  0  0  0  0
    6.1603    0.6067   -1.5045 H   0  0  0  0  0  0  0  0  0  0  0  0
    4.1322   -1.3884   -1.9834 H   0  0  0  0  0  0  0  0  0  0  0  0
    3.9692    0.2081   -2.8063 H   0  0  0  0  0  0  0  0  0  0  0  0
    1.9464   -1.3555   -1.1162 H   0  0  0  0  0  0  0  0  0  0  0  0
    1.7446   -0.6991   -2.7825 H   0  0  0  0  0  0  0  0  0  0  0  0
  1  2  1  0
  2  3  1  0
  3  4  1  0
  4  5  1  0
  5  6  2  0
  6  7  1  0
  7  8  1  0
  8  9  2  0
  9 10  1  0
 10 11  1  0
 10 12  2  0
  9 13  1  0
 13 14  2  0
 13 15  1  0
 15 16  2  0
 16 17  1  0
 17 18  1  0
 17 19  2  0
 19 20  1  0
 20 21  1  0
 21 22  1  0
 22 23  1  0
 23 24  1  0
 23 25  1  0
 25 26  1  0
  7  2  1  0
 26 20  1  0
 19  5  1  0
 15  6  1  0
  1 27  1  0
  1 28  1  0
  1 29  1  0
  2 30  1  1
  3 31  1  0
  3 32  1  0
  8 33  1  0
 11 34  1  0
 16 35  1  0
 21 36  1  0
 21 37  1  0
 22 38  1  0
 22 39  1  0
 24 40  1  0
 24 41  1  0
 24 42  1  0
 25 43  1  0
 25 44  1  0
 26 45  1  0
 26 46  1  0
M  END
$$$$
