
     RDKit          3D

 62 63  0  0  0  0  0  0  0  0999 V2000
   -1.5846    1.0882   -0.2161 C   0  0  1  0  0  0  0  0  0  0  0  0
   -0.9362   -0.1314   -0.9049 C   0  0  0  0  0  0  0  0  0  0  0  0
   -1.3445   -1.4539   -0.3007 C   0  0  0  0  0  0  0  0  0  0  0  0
   -0.4977   -2.1109    0.6094 C   0  0  0  0  0  0  0  0  0  0  0  0
   -0.8850   -3.3261    1.1820 C   0  0  0  0  0  0  0  0  0  0  0  0
   -2.1158   -3.8971    0.8481 C   0  0  0  0  0  0  0  0  0  0  0  0
   -2.9599   -3.2557   -0.0620 C   0  0  0  0  0  0  0  0  0  0  0  0
   -2.5767   -2.0405   -0.6373 C   0  0  0  0  0  0  0  0  0  0  0  0
   -3.0454    1.0412   -0.3259 N   0  0  0  0  0  0  0  0  0  0  0  0
   -3.7334    1.3481   -1.5470 C   0  0  0  0  0  0  0  0  0  0  0  0
   -3.0966    1.7662   -2.5518 O   0  0  0  0  0  0  0  0  0  0  0  0
   -5.2235    1.2110   -1.6215 C   0  0  0  0  0  0  0  0  0  0  0  0
   -5.9058    2.4367   -1.0010 C   0  0  0  0  0  0  0  0  0  0  0  0
   -7.4352    2.3558   -1.0900 C   0  0  0  0  0  0  0  0  0  0  0  0
   -7.9855    1.2763   -0.2093 C   0  0  0  0  0  0  0  0  0  0  0  0
   -8.3395    0.0471   -0.7568 O   0  0  0  0  0  0  0  0  0  0  0  0
   -8.1000    1.4701    1.0306 O   0  0  0  0  0  0  0  0  0  0  0  0
   -1.0758    1.2382    1.5418 P   0  0  2  0  0  5  0  0  0  0  0  0
   -1.8533    0.0464    2.4615 O   0  0  0  0  0  0  0  0  0  0  0  0
   -1.4765    2.6014    2.0640 O   0  0  0  0  0  0  0  0  0  0  0  0
    0.6086    1.0138    1.7059 O   0  0  0  0  0  0  0  0  0  0  0  0
    1.2769    2.1183    1.1464 C   0  0  0  0  0  0  0  0  0  0  0  0
    2.7469    1.8497    1.1757 C   0  0  0  0  0  0  0  0  0  0  0  0
    3.4943    2.5378    1.9228 O   0  0  0  0  0  0  0  0  0  0  0  0
    3.2965    0.7982    0.3719 N   0  0  0  0  0  0  0  0  0  0  0  0
    4.7244    0.4846    0.3959 C   0  0  0  0  0  0  0  0  0  0  0  0
    5.0407   -0.6873   -0.5377 C   0  0  0  0  0  0  0  0  0  0  0  0
    6.5106   -1.0095   -0.5057 C   0  0  0  0  0  0  0  0  0  0  0  0
    7.0167   -1.9183    0.4388 C   0  0  0  0  0  0  0  0  0  0  0  0
    8.3872   -2.1922    0.4882 C   0  0  0  0  0  0  0  0  0  0  0  0
    9.2614   -1.5548   -0.3966 C   0  0  0  0  0  0  0  0  0  0  0  0
    8.7672   -0.6393   -1.3298 C   0  0  0  0  0  0  0  0  0  0  0  0
    7.3974   -0.3624   -1.3827 C   0  0  0  0  0  0  0  0  0  0  0  0
   -1.2219    2.0045   -0.7295 H   0  0  0  0  0  0  0  0  0  0  0  0
    0.1694   -0.0234   -0.8717 H   0  0  0  0  0  0  0  0  0  0  0  0
   -1.2072   -0.1287   -1.9827 H   0  0  0  0  0  0  0  0  0  0  0  0
    0.4584   -1.6804    0.8796 H   0  0  0  0  0  0  0  0  0  0  0  0
   -0.2309   -3.8247    1.8855 H   0  0  0  0  0  0  0  0  0  0  0  0
   -2.4142   -4.8377    1.2927 H   0  0  0  0  0  0  0  0  0  0  0  0
   -3.9114   -3.7008   -0.3229 H   0  0  0  0  0  0  0  0  0  0  0  0
   -3.2391   -1.5594   -1.3455 H   0  0  0  0  0  0  0  0  0  0  0  0
   -3.6181    0.7681    0.5040 H   0  0  0  0  0  0  0  0  0  0  0  0
   -5.5342    1.1038   -2.6839 H   0  0  0  0  0  0  0  0  0  0  0  0
   -5.5255    0.2885   -1.0809 H   0  0  0  0  0  0  0  0  0  0  0  0
   -5.5728    3.3483   -1.5445 H   0  0  0  0  0  0  0  0  0  0  0  0
   -5.5990    2.5455    0.0631 H   0  0  0  0  0  0  0  0  0  0  0  0
   -7.8668    3.3300   -0.7739 H   0  0  0  0  0  0  0  0  0  0  0  0
   -7.7469    2.1785   -2.1421 H   0  0  0  0  0  0  0  0  0  0  0  0
   -8.6993   -0.6976   -0.1720 H   0  0  0  0  0  0  0  0  0  0  0  0
   -2.7236    0.4410    2.7211 H   0  0  0  0  0  0  0  0  0  0  0  0
    1.0625    3.0418    1.7300 H   0  0  0  0  0  0  0  0  0  0  0  0
    0.9873    2.2772    0.0849 H   0  0  0  0  0  0  0  0  0  0  0  0
    2.6497    0.2436   -0.2345 H   0  0  0  0  0  0  0  0  0  0  0  0
    5.0222    0.2208    1.4345 H   0  0  0  0  0  0  0  0  0  0  0  0
    5.3000    1.3803    0.0748 H   0  0  0  0  0  0  0  0  0  0  0  0
    4.4517   -1.5786   -0.2280 H   0  0  0  0  0  0  0  0  0  0  0  0
    4.7326   -0.4298   -1.5749 H   0  0  0  0  0  0  0  0  0  0  0  0
    6.3511   -2.4120    1.1360 H   0  0  0  0  0  0  0  0  0  0  0  0
    8.7719   -2.8961    1.2148 H   0  0  0  0  0  0  0  0  0  0  0  0
   10.3220   -1.7670   -0.3562 H   0  0  0  0  0  0  0  0  0  0  0  0
    9.4459   -0.1414   -2.0102 H   0  0  0  0  0  0  0  0  0  0  0  0
    7.0283    0.3558   -2.1044 H   0  0  0  0  0  0  0  0  0  0  0  0
  1  2  1  0
  2  3  1  0
  3  4  2  0
  4  5  1  0
  5  6  2  0
  6  7  1  0
  7  8  2  0
  1  9  1  0
  9 10  1  0
 10 11  2  0
 10 12  1  0
 12 13  1  0
 13 14  1  0
 14 15  1  0
 15 16  1  0
 15 17  2  0
  1 18  1  0
 18 19  1  1
 18 20  2  0
 18 21  1  0
 21 22  1  0
 22 23  1  0
 23 24  2  0
 23 25  1  0
 25 26  1  0
 26 27  1  0
 27 28  1  0
 28 29  2  0
 29 30  1  0
 30 31  2  0
 31 32  1  0
 32 33  2  0
  8  3  1  0
 33 28  1  0
  1 34  1  6
  2 35  1  0
  2 36  1  0
  4 37  1  0
  5 38  1  0
  6 39  1  0
  7 40  1  0
  8 41  1  0
  9 42  1  0
 12 43  1  0
 12 44  1  0
 13 45  1  0
 13 46  1  0
 14 47  1  0
 14 48  1  0
 16 49  1  0
 19 50  1  0
 22 51  1  0
 22 52  1  0
 25 53  1  0
 26 54  1  0
 26 55  1  0
 27 56  1  0
 27 57  1  0
 29 58  1  0
 30 59  1  0
 31 60  1  0
 32 61  1  0
 33 62  1  0
M  END
$$$$
