
     RDKit          3D

 24 25  0  0  0  0  0  0  0  0999 V2000
    4.8981   -0.5616    0.5418 O   0  0  0  0  0  0  0  0  0  0  0  0
    3.5223   -0.3945    0.3711 C   0  0  0  0  0  0  0  0  0  0  0  0
    2.6781   -0.5133    1.4844 C   0  0  0  0  0  0  0  0  0  0  0  0
    3.3427   -0.8621    3.0733 Cl  0  0  0  0  0  0  0  0  0  0  0  0
    1.2964   -0.3510    1.3425 C   0  0  0  0  0  0  0  0  0  0  0  0
    0.7350   -0.0666    0.0862 C   0  0  0  0  0  0  0  0  0  0  0  0
    1.5845    0.0519   -1.0273 C   0  0  0  0  0  0  0  0  0  0  0  0
    2.9680   -0.1102   -0.8919 C   0  0  0  0  0  0  0  0  0  0  0  0
    3.9750    0.0447   -2.3255 Cl  0  0  0  0  0  0  0  0  0  0  0  0
   -0.7328    0.1060   -0.0627 C   0  0  0  0  0  0  0  0  0  0  0  0
   -1.6240   -0.7444    0.6140 C   0  0  0  0  0  0  0  0  0  0  0  0
   -3.0077   -0.5857    0.4766 C   0  0  0  0  0  0  0  0  0  0  0  0
   -4.0687   -1.6869    1.3454 Cl  0  0  0  0  0  0  0  0  0  0  0  0
   -3.5199    0.4357   -0.3465 C   0  0  0  0  0  0  0  0  0  0  0  0
   -4.8947    0.6224   -0.5055 O   0  0  0  0  0  0  0  0  0  0  0  0
   -2.6339    1.2863   -1.0230 C   0  0  0  0  0  0  0  0  0  0  0  0
   -3.2450    2.5728   -2.0523 Cl  0  0  0  0  0  0  0  0  0  0  0  0
   -1.2523    1.1223   -0.8822 C   0  0  0  0  0  0  0  0  0  0  0  0
    5.5587   -0.4877   -0.2213 H   0  0  0  0  0  0  0  0  0  0  0  0
    0.6643   -0.4297    2.2185 H   0  0  0  0  0  0  0  0  0  0  0  0
    1.1719    0.2532   -2.0083 H   0  0  0  0  0  0  0  0  0  0  0  0
   -1.2457   -1.5456    1.2370 H   0  0  0  0  0  0  0  0  0  0  0  0
   -5.5841    0.0428   -0.0443 H   0  0  0  0  0  0  0  0  0  0  0  0
   -0.5860    1.8012   -1.4000 H   0  0  0  0  0  0  0  0  0  0  0  0
  1  2  1  0
  2  3  2  0
  3  4  1  0
  3  5  1  0
  5  6  2  0
  6  7  1  0
  7  8  2  0
  8  9  1  0
  6 10  1  0
 10 11  2  0
 11 12  1  0
 12 13  1  0
 12 14  2  0
 14 15  1  0
 14 16  1  0
 16 17  1  0
 16 18  2  0
  8  2  1  0
 18 10  1  0
  1 19  1  0
  5 20  1  0
  7 21  1  0
 11 22  1  0
 15 23  1  0
 18 24  1  0
M  END
$$$$
