
     RDKit          3D

 31 33  0  0  0  0  0  0  0  0999 V2000
   -0.2858    2.7053   -1.9291 N   0  0  0  0  0  0  0  0  0  0  0  0
    0.6870    2.0218   -1.1323 C   0  0  0  0  0  0  0  0  0  0  0  0
    1.8916    2.3875   -1.2036 O   0  0  0  0  0  0  0  0  0  0  0  0
    0.3173    0.9086   -0.2870 N   0  0  0  0  0  0  0  0  0  0  0  0
   -1.0452    0.4694   -0.2158 C   0  0  0  0  0  0  0  0  0  0  0  0
   -2.0077    1.2405    0.4511 C   0  0  0  0  0  0  0  0  0  0  0  0
   -3.3300    0.7941    0.5291 C   0  0  0  0  0  0  0  0  0  0  0  0
   -3.6927   -0.4246   -0.0520 C   0  0  0  0  0  0  0  0  0  0  0  0
   -2.7345   -1.1988   -0.7141 C   0  0  0  0  0  0  0  0  0  0  0  0
   -1.4071   -0.7496   -0.8033 C   0  0  0  0  0  0  0  0  0  0  0  0
   -0.3504   -1.5630   -1.4892 C   0  0  0  0  0  0  0  0  0  0  0  0
    0.6182   -2.1023   -0.4768 C   0  0  0  0  0  0  0  0  0  0  0  0
    0.7184   -3.3561   -0.3770 O   0  0  0  0  0  0  0  0  0  0  0  0
    1.4566   -1.2259    0.4032 C   0  0  0  0  0  0  0  0  0  0  0  0
    1.3144    0.1939    0.4728 C   0  0  0  0  0  0  0  0  0  0  0  0
    2.1387    0.9267    1.3464 C   0  0  0  0  0  0  0  0  0  0  0  0
    3.1034    0.2908    2.1245 C   0  0  0  0  0  0  0  0  0  0  0  0
    3.2566   -1.0896    2.0518 C   0  0  0  0  0  0  0  0  0  0  0  0
    2.4422   -1.8412    1.2050 C   0  0  0  0  0  0  0  0  0  0  0  0
    0.0037    3.5159   -2.5201 H   0  0  0  0  0  0  0  0  0  0  0  0
   -1.2818    2.3989   -1.9718 H   0  0  0  0  0  0  0  0  0  0  0  0
   -1.7296    2.1812    0.9092 H   0  0  0  0  0  0  0  0  0  0  0  0
   -4.0725    1.3903    1.0433 H   0  0  0  0  0  0  0  0  0  0  0  0
   -4.7160   -0.7709    0.0134 H   0  0  0  0  0  0  0  0  0  0  0  0
   -3.0268   -2.1440   -1.1541 H   0  0  0  0  0  0  0  0  0  0  0  0
    0.1964   -0.9345   -2.2248 H   0  0  0  0  0  0  0  0  0  0  0  0
   -0.8114   -2.3986   -2.0610 H   0  0  0  0  0  0  0  0  0  0  0  0
    2.0201    1.9993    1.4354 H   0  0  0  0  0  0  0  0  0  0  0  0
    3.7300    0.8703    2.7903 H   0  0  0  0  0  0  0  0  0  0  0  0
    4.0063   -1.5817    2.6580 H   0  0  0  0  0  0  0  0  0  0  0  0
    2.5906   -2.9135    1.1785 H   0  0  0  0  0  0  0  0  0  0  0  0
  1  2  1  0
  2  3  2  0
  2  4  1  0
  4  5  1  0
  5  6  2  0
  6  7  1  0
  7  8  2  0
  8  9  1  0
  9 10  2  0
 10 11  1  0
 11 12  1  0
 12 13  2  0
 12 14  1  0
 14 15  2  0
 15 16  1  0
 16 17  2  0
 17 18  1  0
 18 19  2  0
 15  4  1  0
 10  5  1  0
 19 14  1  0
  1 20  1  0
  1 21  1  0
  6 22  1  0
  7 23  1  0
  8 24  1  0
  9 25  1  0
 11 26  1  0
 11 27  1  0
 16 28  1  0
 17 29  1  0
 18 30  1  0
 19 31  1  0
M  END
$$$$
