
     RDKit          3D

 36 38  0  0  0  0  0  0  0  0999 V2000
   -1.0671    1.0564    0.7340 C   0  0  2  0  0  0  0  0  0  0  0  0
    0.3027    1.4800    1.2800 C   0  0  0  0  0  0  0  0  0  0  0  0
    1.4295    0.5859    0.8015 C   0  0  0  0  0  0  0  0  0  0  0  0
    1.2896   -0.2318   -0.3543 C   0  0  0  0  0  0  0  0  0  0  0  0
    2.3780   -1.0461   -0.7188 C   0  0  0  0  0  0  0  0  0  0  0  0
    3.5712   -0.9972   -0.0025 C   0  0  0  0  0  0  0  0  0  0  0  0
    3.6780   -0.1473    1.0960 C   0  0  0  0  0  0  0  0  0  0  0  0
    4.7571   -0.0933    1.7443 O   0  0  0  0  0  0  0  0  0  0  0  0
    2.6187    0.6191    1.4715 N   0  0  0  0  0  0  0  0  0  0  0  0
   -0.0499   -0.3309   -1.1088 C   0  0  1  0  0  0  0  0  0  0  0  0
    0.1642   -0.4115   -2.5642 N   0  0  0  0  0  0  0  0  0  0  0  0
   -0.8173   -1.5846   -0.6201 C   0  0  0  0  0  0  0  0  0  0  0  0
   -1.3354   -1.4511    0.8056 C   0  0  0  0  0  0  0  0  0  0  0  0
   -1.7677   -2.6865    1.5450 C   0  0  0  0  0  0  0  0  0  0  0  0
   -1.5125   -0.2404    1.3843 C   0  0  0  0  0  0  0  0  0  0  0  0
   -0.9237    0.8665   -0.7573 C   0  0  0  0  0  0  0  0  0  0  0  0
   -1.5299    1.6575   -1.6771 C   0  0  0  0  0  0  0  0  0  0  0  0
   -2.3858    2.8382   -1.3217 C   0  0  0  0  0  0  0  0  0  0  0  0
   -1.8095    1.8369    0.9983 H   0  0  0  0  0  0  0  0  0  0  0  0
    0.2728    1.4862    2.3918 H   0  0  0  0  0  0  0  0  0  0  0  0
    0.5188    2.5186    0.9474 H   0  0  0  0  0  0  0  0  0  0  0  0
    2.3101   -1.7316   -1.5514 H   0  0  0  0  0  0  0  0  0  0  0  0
    4.4053   -1.6219   -0.2981 H   0  0  0  0  0  0  0  0  0  0  0  0
    2.7220    1.2466    2.3018 H   0  0  0  0  0  0  0  0  0  0  0  0
    0.8802    0.2950   -2.8539 H   0  0  0  0  0  0  0  0  0  0  0  0
    0.5161   -1.3574   -2.8367 H   0  0  0  0  0  0  0  0  0  0  0  0
   -1.6919   -1.7615   -1.2840 H   0  0  0  0  0  0  0  0  0  0  0  0
   -0.1607   -2.4793   -0.6941 H   0  0  0  0  0  0  0  0  0  0  0  0
   -1.6195   -3.5949    0.9237 H   0  0  0  0  0  0  0  0  0  0  0  0
   -1.1711   -2.7937    2.4754 H   0  0  0  0  0  0  0  0  0  0  0  0
   -2.8445   -2.6131    1.8070 H   0  0  0  0  0  0  0  0  0  0  0  0
   -1.9107   -0.1857    2.3943 H   0  0  0  0  0  0  0  0  0  0  0  0
   -1.4063    1.4583   -2.7361 H   0  0  0  0  0  0  0  0  0  0  0  0
   -3.2766    2.5057   -0.7485 H   0  0  0  0  0  0  0  0  0  0  0  0
   -2.7339    3.3398   -2.2490 H   0  0  0  0  0  0  0  0  0  0  0  0
   -1.7999    3.5691   -0.7253 H   0  0  0  0  0  0  0  0  0  0  0  0
  1  2  1  0
  2  3  1  0
  3  4  2  0
  4  5  1  0
  5  6  2  0
  6  7  1  0
  7  8  2  0
  7  9  1  0
  4 10  1  0
 10 11  1  6
 10 12  1  0
 12 13  1  0
 13 14  1  0
 13 15  2  0
 10 16  1  0
 16 17  2  0
 17 18  1  0
 15  1  1  0
 16  1  1  0
  9  3  1  0
  1 19  1  6
  2 20  1  0
  2 21  1  0
  5 22  1  0
  6 23  1  0
  9 24  1  0
 11 25  1  0
 11 26  1  0
 12 27  1  0
 12 28  1  0
 14 29  1  0
 14 30  1  0
 14 31  1  0
 15 32  1  0
 17 33  1  0
 18 34  1  0
 18 35  1  0
 18 36  1  0
M  END
$$$$
