
     RDKit          3D

 28 29  0  0  0  0  0  0  0  0999 V2000
    5.7160    0.8887   -0.3583 O   0  0  0  0  0  0  0  0  0  0  0  0
    5.0593    0.6031    0.8344 C   0  0  0  0  0  0  0  0  0  0  0  0
    5.2922    1.2922    1.8632 O   0  0  0  0  0  0  0  0  0  0  0  0
    4.0386   -0.4896    0.8795 C   0  0  0  0  0  0  0  0  0  0  0  0
    2.7137    0.0262    0.5364 N   0  0  0  0  0  0  0  0  0  0  0  0
    1.5638   -0.8351    0.5048 C   0  0  0  0  0  0  0  0  0  0  0  0
    1.7039   -2.0582    0.7795 O   0  0  0  0  0  0  0  0  0  0  0  0
    0.2249   -0.2901    0.1521 C   0  0  0  0  0  0  0  0  0  0  0  0
   -0.9364   -1.0955    0.1112 C   0  0  0  0  0  0  0  0  0  0  0  0
   -0.8191   -2.4575    0.4154 O   0  0  0  0  0  0  0  0  0  0  0  0
   -2.1792   -0.4985   -0.2355 C   0  0  0  0  0  0  0  0  0  0  0  0
   -3.3821   -1.2390   -0.2977 C   0  0  0  0  0  0  0  0  0  0  0  0
   -4.5851   -0.6203   -0.6418 C   0  0  0  0  0  0  0  0  0  0  0  0
   -4.6186    0.7405   -0.9300 C   0  0  0  0  0  0  0  0  0  0  0  0
   -3.4488    1.4955   -0.8768 C   0  0  0  0  0  0  0  0  0  0  0  0
   -2.2230    0.8922   -0.5319 C   0  0  0  0  0  0  0  0  0  0  0  0
   -1.0336    1.6404   -0.4739 C   0  0  0  0  0  0  0  0  0  0  0  0
   -0.9806    3.3652   -0.8222 Cl  0  0  0  0  0  0  0  0  0  0  0  0
    0.1292    1.0328   -0.1395 N   0  0  0  0  0  0  0  0  0  0  0  0
    6.3971    1.6368   -0.4100 H   0  0  0  0  0  0  0  0  0  0  0  0
    4.3250   -1.2848    0.1582 H   0  0  0  0  0  0  0  0  0  0  0  0
    4.0131   -0.9316    1.8992 H   0  0  0  0  0  0  0  0  0  0  0  0
    2.6029    1.0410    0.3106 H   0  0  0  0  0  0  0  0  0  0  0  0
   -1.5778   -3.1221    0.4181 H   0  0  0  0  0  0  0  0  0  0  0  0
   -3.4271   -2.2944   -0.0871 H   0  0  0  0  0  0  0  0  0  0  0  0
   -5.4977   -1.2011   -0.6850 H   0  0  0  0  0  0  0  0  0  0  0  0
   -5.5556    1.2129   -1.1960 H   0  0  0  0  0  0  0  0  0  0  0  0
   -3.5149    2.5503   -1.1075 H   0  0  0  0  0  0  0  0  0  0  0  0
  1  2  1  0
  2  3  2  0
  2  4  1  0
  4  5  1  0
  5  6  1  0
  6  7  2  0
  6  8  1  0
  8  9  2  0
  9 10  1  0
  9 11  1  0
 11 12  2  0
 12 13  1  0
 13 14  2  0
 14 15  1  0
 15 16  2  0
 16 17  1  0
 17 18  1  0
 17 19  2  0
 19  8  1  0
 16 11  1  0
  1 20  1  0
  4 21  1  0
  4 22  1  0
  5 23  1  0
 10 24  1  0
 12 25  1  0
 13 26  1  0
 14 27  1  0
 15 28  1  0
M  END
$$$$
