
     RDKit          3D

 58 62  0  0  0  0  0  0  0  0999 V2000
   -1.0468   -2.8915   -0.8387 C   0  0  1  0  0  0  0  0  0  0  0  0
   -2.1428   -3.9118   -1.2061 C   0  0  0  0  0  0  0  0  0  0  0  0
   -3.0153   -3.4150   -2.3649 C   0  0  0  0  0  0  0  0  0  0  0  0
   -2.1594   -3.1017   -3.5958 C   0  0  0  0  0  0  0  0  0  0  0  0
   -1.0811   -2.0647   -3.2645 C   0  0  0  0  0  0  0  0  0  0  0  0
   -0.1971   -2.5299   -2.0870 C   0  0  1  0  0  0  0  0  0  0  0  0
    0.7938   -1.4994   -1.7540 N   0  0  0  0  0  0  0  0  0  0  0  0
    1.9466   -1.7762   -0.9439 C   0  0  0  0  0  0  0  0  0  0  0  0
    2.2083   -2.9597   -0.5970 O   0  0  0  0  0  0  0  0  0  0  0  0
    2.8327   -0.6856   -0.5125 C   0  0  0  0  0  0  0  0  0  0  0  0
    2.6191    0.6167   -0.8155 N   0  0  0  0  0  0  0  0  0  0  0  0
    3.5754    1.4170   -0.2760 C   0  0  0  0  0  0  0  0  0  0  0  0
    4.5664    0.7541    0.4245 C   0  0  0  0  0  0  0  0  0  0  0  0
    5.6650    1.4517    1.1663 C   0  0  0  0  0  0  0  0  0  0  0  0
    5.8660    2.8327    0.6689 N   0  0  0  0  0  0  0  0  0  0  0  0
    6.6700    2.8574   -0.5652 C   0  0  0  0  0  0  0  0  0  0  0  0
    4.5853    3.5671    0.5188 C   0  0  0  0  0  0  0  0  0  0  0  0
    3.6162    2.8984   -0.4818 C   0  0  0  0  0  0  0  0  0  0  0  0
    4.2203   -0.8890    0.4306 S   0  0  0  0  0  0  0  0  0  0  0  0
   -1.6398   -1.6963   -0.2202 N   0  0  0  0  0  0  0  0  0  0  0  0
   -2.1582   -1.7087    1.1197 C   0  0  0  0  0  0  0  0  0  0  0  0
   -1.9992   -2.7282    1.8451 O   0  0  0  0  0  0  0  0  0  0  0  0
   -2.8665   -0.5376    1.6738 C   0  0  0  0  0  0  0  0  0  0  0  0
   -3.2504   -0.4042    3.0082 C   0  0  0  0  0  0  0  0  0  0  0  0
   -3.8838    0.8166    3.0781 C   0  0  0  0  0  0  0  0  0  0  0  0
   -3.8663    1.3620    1.8217 C   0  0  0  0  0  0  0  0  0  0  0  0
   -3.2492    0.5454    0.9517 N   0  0  0  0  0  0  0  0  0  0  0  0
   -4.4403    2.6041    1.5551 C   0  0  0  0  0  0  0  0  0  0  0  0
   -5.0429    3.2929    2.6239 C   0  0  0  0  0  0  0  0  0  0  0  0
   -5.0595    2.7298    3.9210 C   0  0  0  0  0  0  0  0  0  0  0  0
   -5.8154    3.6012    5.2418 Cl  0  0  0  0  0  0  0  0  0  0  0  0
   -4.4727    1.4717    4.1574 C   0  0  0  0  0  0  0  0  0  0  0  0
   -0.3699   -3.3724   -0.0990 H   0  0  0  0  0  0  0  0  0  0  0  0
   -1.6651   -4.8740   -1.4952 H   0  0  0  0  0  0  0  0  0  0  0  0
   -2.7875   -4.1170   -0.3251 H   0  0  0  0  0  0  0  0  0  0  0  0
   -3.7572   -4.1999   -2.6263 H   0  0  0  0  0  0  0  0  0  0  0  0
   -3.5755   -2.5059   -2.0538 H   0  0  0  0  0  0  0  0  0  0  0  0
   -1.6805   -4.0346   -3.9666 H   0  0  0  0  0  0  0  0  0  0  0  0
   -2.8113   -2.7071   -4.4046 H   0  0  0  0  0  0  0  0  0  0  0  0
   -0.4431   -1.9114   -4.1619 H   0  0  0  0  0  0  0  0  0  0  0  0
   -1.5676   -1.0930   -3.0313 H   0  0  0  0  0  0  0  0  0  0  0  0
    0.3439   -3.4436   -2.4230 H   0  0  0  0  0  0  0  0  0  0  0  0
    0.6626   -0.5298   -2.1224 H   0  0  0  0  0  0  0  0  0  0  0  0
    6.6044    0.8614    1.0892 H   0  0  0  0  0  0  0  0  0  0  0  0
    5.3907    1.4930    2.2418 H   0  0  0  0  0  0  0  0  0  0  0  0
    6.2158    2.2294   -1.3618 H   0  0  0  0  0  0  0  0  0  0  0  0
    6.7758    3.8986   -0.9383 H   0  0  0  0  0  0  0  0  0  0  0  0
    7.6922    2.4777   -0.3539 H   0  0  0  0  0  0  0  0  0  0  0  0
    4.0885    3.6294    1.5123 H   0  0  0  0  0  0  0  0  0  0  0  0
    4.7809    4.6141    0.1998 H   0  0  0  0  0  0  0  0  0  0  0  0
    3.9434    3.1093   -1.5219 H   0  0  0  0  0  0  0  0  0  0  0  0
    2.5975    3.3208   -0.3478 H   0  0  0  0  0  0  0  0  0  0  0  0
   -1.6098   -0.7892   -0.7338 H   0  0  0  0  0  0  0  0  0  0  0  0
   -3.0883   -1.1055    3.8166 H   0  0  0  0  0  0  0  0  0  0  0  0
   -3.1198    0.7179   -0.0694 H   0  0  0  0  0  0  0  0  0  0  0  0
   -4.4236    3.0264    0.5587 H   0  0  0  0  0  0  0  0  0  0  0  0
   -5.4961    4.2599    2.4472 H   0  0  0  0  0  0  0  0  0  0  0  0
   -4.4787    1.0261    5.1440 H   0  0  0  0  0  0  0  0  0  0  0  0
  1  2  1  0
  2  3  1  0
  3  4  1  0
  4  5  1  0
  5  6  1  0
  6  7  1  0
  7  8  1  0
  8  9  2  0
  8 10  1  0
 10 11  2  0
 11 12  1  0
 12 13  2  0
 13 14  1  0
 14 15  1  0
 15 16  1  0
 15 17  1  0
 17 18  1  0
 13 19  1  0
  1 20  1  0
 20 21  1  0
 21 22  2  0
 21 23  1  0
 23 24  2  0
 24 25  1  0
 25 26  2  0
 26 27  1  0
 26 28  1  0
 28 29  2  0
 29 30  1  0
 30 31  1  0
 30 32  2  0
  6  1  1  0
 19 10  1  0
 27 23  1  0
 18 12  1  0
 32 25  1  0
  1 33  1  1
  2 34  1  0
  2 35  1  0
  3 36  1  0
  3 37  1  0
  4 38  1  0
  4 39  1  0
  5 40  1  0
  5 41  1  0
  6 42  1  6
  7 43  1  0
 14 44  1  0
 14 45  1  0
 16 46  1  0
 16 47  1  0
 16 48  1  0
 17 49  1  0
 17 50  1  0
 18 51  1  0
 18 52  1  0
 20 53  1  0
 24 54  1  0
 27 55  1  0
 28 56  1  0
 29 57  1  0
 32 58  1  0
M  END
$$$$
