
     RDKit          3D

 56 59  0  0  0  0  0  0  0  0999 V2000
    1.0855    0.8701    0.6876 C   0  0  2  0  0  0  0  0  0  0  0  0
    2.0410    2.0329    0.9155 C   0  0  0  0  0  0  0  0  0  0  0  0
    3.4308    1.3775    0.9956 C   0  0  0  0  0  0  0  0  0  0  0  0
    3.2556   -0.1372    0.6491 C   0  0  2  0  0  0  0  0  0  0  0  0
    3.1236   -0.8125    1.8845 O   0  0  0  0  0  0  0  0  0  0  0  0
    4.4674   -0.6965   -0.1245 C   0  0  0  0  0  0  0  0  0  0  0  0
    5.3745    0.0486   -0.4674 O   0  0  0  0  0  0  0  0  0  0  0  0
    4.5808   -2.1512   -0.5031 C   0  0  0  0  0  0  0  0  0  0  0  0
    6.0068   -2.9097    0.3344 S   0  0  0  0  0  0  0  0  0  0  0  0
    1.9012   -0.1426   -0.1499 C   0  0  2  0  0  0  0  0  0  0  0  0
    2.1893    0.3397   -1.6137 C   0  0  0  0  0  0  0  0  0  0  0  0
    1.1167   -1.4915   -0.1933 C   0  0  0  0  0  0  0  0  0  0  0  0
   -0.3749   -1.3531   -0.6218 C   0  0  2  0  0  0  0  0  0  0  0  0
   -0.4963   -1.2830   -2.0219 O   0  0  0  0  0  0  0  0  0  0  0  0
   -1.1138   -0.2104    0.1575 C   0  0  1  0  0  0  0  0  0  0  0  0
   -0.3288    1.1432    0.1137 C   0  0  1  0  0  0  0  0  0  0  0  0
   -1.0888    2.2929    0.8409 C   0  0  0  0  0  0  0  0  0  0  0  0
   -2.2432    1.8292    1.7362 C   0  0  0  0  0  0  0  0  0  0  0  0
   -3.1901    0.8965    1.0104 C   0  0  0  0  0  0  0  0  0  0  0  0
   -4.4633    0.8184    1.4358 C   0  0  0  0  0  0  0  0  0  0  0  0
   -5.3856   -0.2135    0.9372 C   0  0  0  0  0  0  0  0  0  0  0  0
   -6.5941   -0.1878    1.2909 O   0  0  0  0  0  0  0  0  0  0  0  0
   -4.9114   -1.2877    0.0051 C   0  0  0  0  0  0  0  0  0  0  0  0
   -3.3805   -1.4145    0.0304 C   0  0  0  0  0  0  0  0  0  0  0  0
   -2.6601   -0.0367   -0.0867 C   0  0  2  0  0  0  0  0  0  0  0  0
   -2.9838    0.5941   -1.4665 C   0  0  0  0  0  0  0  0  0  0  0  0
    0.9203    0.4364    1.7039 H   0  0  0  0  0  0  0  0  0  0  0  0
    1.8139    2.5680    1.8630 H   0  0  0  0  0  0  0  0  0  0  0  0
    1.9894    2.7500    0.0669 H   0  0  0  0  0  0  0  0  0  0  0  0
    3.8622    1.5038    2.0135 H   0  0  0  0  0  0  0  0  0  0  0  0
    4.0994    1.9121    0.2876 H   0  0  0  0  0  0  0  0  0  0  0  0
    3.1559   -1.7901    1.7343 H   0  0  0  0  0  0  0  0  0  0  0  0
    3.6811   -2.7261   -0.2201 H   0  0  0  0  0  0  0  0  0  0  0  0
    4.7086   -2.2398   -1.6026 H   0  0  0  0  0  0  0  0  0  0  0  0
    6.9455   -2.2013   -0.4403 H   0  0  0  0  0  0  0  0  0  0  0  0
    2.6813   -0.4696   -2.1934 H   0  0  0  0  0  0  0  0  0  0  0  0
    1.2980    0.6369   -2.1812 H   0  0  0  0  0  0  0  0  0  0  0  0
    2.8668    1.2171   -1.6395 H   0  0  0  0  0  0  0  0  0  0  0  0
    1.6115   -2.2082   -0.8805 H   0  0  0  0  0  0  0  0  0  0  0  0
    1.1178   -1.9560    0.8149 H   0  0  0  0  0  0  0  0  0  0  0  0
   -0.8452   -2.3142   -0.3236 H   0  0  0  0  0  0  0  0  0  0  0  0
   -0.5926   -0.3395   -2.2935 H   0  0  0  0  0  0  0  0  0  0  0  0
   -1.0527   -0.5616    1.2156 H   0  0  0  0  0  0  0  0  0  0  0  0
   -0.2201    1.4793   -0.9330 H   0  0  0  0  0  0  0  0  0  0  0  0
   -0.4079    2.9181    1.4513 H   0  0  0  0  0  0  0  0  0  0  0  0
   -1.5152    2.9786    0.0754 H   0  0  0  0  0  0  0  0  0  0  0  0
   -1.8340    1.3072    2.6280 H   0  0  0  0  0  0  0  0  0  0  0  0
   -2.7861    2.7325    2.0929 H   0  0  0  0  0  0  0  0  0  0  0  0
   -4.8175    1.4846    2.2141 H   0  0  0  0  0  0  0  0  0  0  0  0
   -5.2601   -1.0573   -1.0238 H   0  0  0  0  0  0  0  0  0  0  0  0
   -5.3596   -2.2601    0.3033 H   0  0  0  0  0  0  0  0  0  0  0  0
   -3.0852   -1.9092    0.9828 H   0  0  0  0  0  0  0  0  0  0  0  0
   -3.0811   -2.0851   -0.8036 H   0  0  0  0  0  0  0  0  0  0  0  0
   -4.0410    0.9318   -1.5079 H   0  0  0  0  0  0  0  0  0  0  0  0
   -2.3634    1.4862   -1.6772 H   0  0  0  0  0  0  0  0  0  0  0  0
   -2.8483   -0.1394   -2.2872 H   0  0  0  0  0  0  0  0  0  0  0  0
  1  2  1  0
  2  3  1  0
  3  4  1  0
  4  5  1  1
  4  6  1  0
  6  7  2  0
  6  8  1  0
  8  9  1  0
  4 10  1  0
 10 11  1  6
 10 12  1  0
 12 13  1  0
 13 14  1  0
 13 15  1  0
 15 16  1  0
 16 17  1  0
 17 18  1  0
 18 19  1  0
 19 20  2  0
 20 21  1  0
 21 22  2  0
 21 23  1  0
 23 24  1  0
 24 25  1  0
 25 26  1  6
 10  1  1  0
 25 15  1  0
 16  1  1  0
 25 19  1  0
  1 27  1  1
  2 28  1  0
  2 29  1  0
  3 30  1  0
  3 31  1  0
  5 32  1  0
  8 33  1  0
  8 34  1  0
  9 35  1  0
 11 36  1  0
 11 37  1  0
 11 38  1  0
 12 39  1  0
 12 40  1  0
 13 41  1  1
 14 42  1  0
 15 43  1  1
 16 44  1  6
 17 45  1  0
 17 46  1  0
 18 47  1  0
 18 48  1  0
 20 49  1  0
 23 50  1  0
 23 51  1  0
 24 52  1  0
 24 53  1  0
 26 54  1  0
 26 55  1  0
 26 56  1  0
M  END
$$$$
