
     RDKit          3D

 53 55  0  0  0  0  0  0  0  0999 V2000
    3.1034    0.5112    1.5716 C   0  0  0  0  0  0  0  0  0  0  0  0
    4.1165   -0.4445    0.9303 C   0  0  1  0  0  0  0  0  0  0  0  0
    3.5685   -1.0144   -0.3059 N   0  0  0  0  0  0  0  0  0  0  0  0
    2.5040   -1.9765   -0.3005 C   0  0  0  0  0  0  0  0  0  0  0  0
    2.1360   -2.5125    0.7800 O   0  0  0  0  0  0  0  0  0  0  0  0
    1.7873   -2.3171   -1.5719 C   0  0  0  0  0  0  0  0  0  0  0  0
    0.5306   -1.4814   -1.6957 C   0  0  0  0  0  0  0  0  0  0  0  0
    0.5613   -0.2359   -2.3584 C   0  0  0  0  0  0  0  0  0  0  0  0
    2.0190    0.4087   -3.1086 Cl  0  0  0  0  0  0  0  0  0  0  0  0
   -0.5988    0.5276   -2.4277 C   0  0  0  0  0  0  0  0  0  0  0  0
   -1.7723    0.0739   -1.8405 C   0  0  0  0  0  0  0  0  0  0  0  0
   -1.7862   -1.1607   -1.1633 C   0  0  0  0  0  0  0  0  0  0  0  0
   -2.8707   -1.6172   -0.5933 N   0  0  0  0  0  0  0  0  0  0  0  0
   -4.1913   -0.9878   -0.5117 C   0  0  0  0  0  0  0  0  0  0  0  0
   -4.2662   -0.0125    0.6725 C   0  0  0  0  0  0  0  0  0  0  0  0
   -3.2925    0.9649    0.5454 F   0  0  0  0  0  0  0  0  0  0  0  0
   -4.0093   -0.6966    1.8492 F   0  0  0  0  0  0  0  0  0  0  0  0
   -5.6425    0.6246    0.7318 C   0  0  0  0  0  0  0  0  0  0  0  0
   -5.8565    1.8791    0.1303 C   0  0  0  0  0  0  0  0  0  0  0  0
   -7.1278    2.4501    0.1521 C   0  0  0  0  0  0  0  0  0  0  0  0
   -8.1822    1.7694    0.7541 C   0  0  0  0  0  0  0  0  0  0  0  0
   -7.9514    0.5156    1.3194 C   0  0  0  0  0  0  0  0  0  0  0  0
   -6.7062   -0.0379    1.2933 N   0  0  0  0  0  4  0  0  0  0  0  0
   -6.5430   -1.2933    1.8350 O   0  0  0  0  0  1  0  0  0  0  0  0
   -0.6340   -1.9083   -1.1042 N   0  0  0  0  0  0  0  0  0  0  0  0
   -0.6250   -3.1183   -0.4305 O   0  0  0  0  0  0  0  0  0  0  0  0
    5.4262    0.2704    0.6561 C   0  0  0  0  0  0  0  0  0  0  0  0
    5.4847    1.3478   -0.2494 C   0  0  0  0  0  0  0  0  0  0  0  0
    6.6961    2.0041   -0.4927 C   0  0  0  0  0  0  0  0  0  0  0  0
    6.7564    3.3421   -1.6253 Cl  0  0  0  0  0  0  0  0  0  0  0  0
    7.8585    1.5932    0.1664 C   0  0  0  0  0  0  0  0  0  0  0  0
    7.8110    0.5275    1.0679 C   0  0  0  0  0  0  0  0  0  0  0  0
    6.6028   -0.1316    1.3136 C   0  0  0  0  0  0  0  0  0  0  0  0
    2.8025    1.3061    0.8566 H   0  0  0  0  0  0  0  0  0  0  0  0
    2.1930   -0.0442    1.8799 H   0  0  0  0  0  0  0  0  0  0  0  0
    3.5424    0.9838    2.4762 H   0  0  0  0  0  0  0  0  0  0  0  0
    4.3000   -1.2747    1.6485 H   0  0  0  0  0  0  0  0  0  0  0  0
    3.9496   -0.7093   -1.2297 H   0  0  0  0  0  0  0  0  0  0  0  0
    2.4586   -2.1702   -2.4432 H   0  0  0  0  0  0  0  0  0  0  0  0
    1.5360   -3.3990   -1.5761 H   0  0  0  0  0  0  0  0  0  0  0  0
   -0.5922    1.4827   -2.9380 H   0  0  0  0  0  0  0  0  0  0  0  0
   -2.6494    0.6996   -1.9200 H   0  0  0  0  0  0  0  0  0  0  0  0
   -4.9393   -1.7934   -0.3528 H   0  0  0  0  0  0  0  0  0  0  0  0
   -4.4607   -0.4940   -1.4695 H   0  0  0  0  0  0  0  0  0  0  0  0
   -5.0498    2.4121   -0.3567 H   0  0  0  0  0  0  0  0  0  0  0  0
   -7.2962    3.4178   -0.3026 H   0  0  0  0  0  0  0  0  0  0  0  0
   -9.1731    2.2043    0.7739 H   0  0  0  0  0  0  0  0  0  0  0  0
   -8.7745   -0.0218    1.7740 H   0  0  0  0  0  0  0  0  0  0  0  0
   -1.4422   -3.4938    0.0359 H   0  0  0  0  0  0  0  0  0  0  0  0
    4.5918    1.6748   -0.7677 H   0  0  0  0  0  0  0  0  0  0  0  0
    8.7978    2.0985   -0.0189 H   0  0  0  0  0  0  0  0  0  0  0  0
    8.7119    0.2114    1.5778 H   0  0  0  0  0  0  0  0  0  0  0  0
    6.5876   -0.9545    2.0172 H   0  0  0  0  0  0  0  0  0  0  0  0
  1  2  1  0
  2  3  1  0
  3  4  1  0
  4  5  2  0
  4  6  1  0
  6  7  1  0
  7  8  2  0
  8  9  1  0
  8 10  1  0
 10 11  2  0
 11 12  1  0
 12 13  2  0
 13 14  1  0
 14 15  1  0
 15 16  1  0
 15 17  1  0
 15 18  1  0
 18 19  2  0
 19 20  1  0
 20 21  2  0
 21 22  1  0
 22 23  2  0
 23 24  1  0
 12 25  1  0
 25 26  1  0
  2 27  1  0
 27 28  2  0
 28 29  1  0
 29 30  1  0
 29 31  2  0
 31 32  1  0
 32 33  2  0
 25  7  1  0
 33 27  1  0
 23 18  1  0
  1 34  1  0
  1 35  1  0
  1 36  1  0
  2 37  1  1
  3 38  1  0
  6 39  1  0
  6 40  1  0
 10 41  1  0
 11 42  1  0
 14 43  1  0
 14 44  1  0
 19 45  1  0
 20 46  1  0
 21 47  1  0
 22 48  1  0
 26 49  1  0
 28 50  1  0
 31 51  1  0
 32 52  1  0
 33 53  1  0
M  CHG  2  23   1  24  -1
M  END
$$$$
