
     RDKit          3D

  9  8  0  0  0  0  0  0  0  0999 V2000
    1.0111   -0.1079    0.6441 C   0  0  0  0  0  0  0  0  0  0  0  0
   -0.0596    0.5139   -0.1965 C   0  0  0  0  0  0  0  0  0  0  0  0
    0.1165    1.6632   -0.6811 O   0  0  0  0  0  0  0  0  0  0  0  0
   -1.3159   -0.1956   -0.4668 C   0  0  0  0  0  0  0  0  0  0  0  0
   -1.5209   -1.3456    0.0038 O   0  0  0  0  0  0  0  0  0  0  0  0
    1.3500   -1.0566    0.1776 H   0  0  0  0  0  0  0  0  0  0  0  0
    1.8817    0.5760    0.7357 H   0  0  0  0  0  0  0  0  0  0  0  0
    0.6148   -0.3192    1.6594 H   0  0  0  0  0  0  0  0  0  0  0  0
   -2.0776    0.2717   -1.0773 H   0  0  0  0  0  0  0  0  0  0  0  0
  1  2  1  0
  2  3  2  0
  2  4  1  0
  4  5  2  0
  1  6  1  0
  1  7  1  0
  1  8  1  0
  4  9  1  0
M  END
$$$$
