
     RDKit          3D

 35 35  0  0  0  0  0  0  0  0999 V2000
   -3.1223    0.9812    0.8361 C   0  0  0  0  0  0  0  0  0  0  0  0
   -2.8942   -0.5231    0.5632 C   0  0  0  0  0  0  0  0  0  0  0  0
   -2.5431   -1.2518    1.8792 C   0  0  0  0  0  0  0  0  0  0  0  0
   -4.2095   -1.1267    0.0266 C   0  0  0  0  0  0  0  0  0  0  0  0
   -1.8385   -0.7472   -0.4571 N   0  0  0  0  0  0  0  0  0  0  0  0
   -0.5451   -0.0988   -0.1778 C   0  0  0  0  0  0  0  0  0  0  0  0
    0.5412   -0.6724   -1.1082 C   0  0  0  0  0  0  0  0  0  0  0  0
    0.2471   -0.4337   -2.4634 O   0  0  0  0  0  0  0  0  0  0  0  0
    1.9144   -0.1321   -0.7574 C   0  0  0  0  0  0  0  0  0  0  0  0
    2.9126   -0.9999   -0.2792 C   0  0  0  0  0  0  0  0  0  0  0  0
    4.1825   -0.5088    0.0541 C   0  0  0  0  0  0  0  0  0  0  0  0
    5.1733   -1.3665    0.5269 O   0  0  0  0  0  0  0  0  0  0  0  0
    4.4611    0.8534   -0.0871 C   0  0  0  0  0  0  0  0  0  0  0  0
    3.4753    1.7290   -0.5590 C   0  0  0  0  0  0  0  0  0  0  0  0
    3.7434    3.0888   -0.7003 O   0  0  0  0  0  0  0  0  0  0  0  0
    2.2086    1.2380   -0.8916 C   0  0  0  0  0  0  0  0  0  0  0  0
   -4.0037    1.1290    1.4970 H   0  0  0  0  0  0  0  0  0  0  0  0
   -3.3016    1.5253   -0.1160 H   0  0  0  0  0  0  0  0  0  0  0  0
   -2.2463    1.4353    1.3453 H   0  0  0  0  0  0  0  0  0  0  0  0
   -3.4173   -1.2663    2.5657 H   0  0  0  0  0  0  0  0  0  0  0  0
   -1.7185   -0.7478    2.4235 H   0  0  0  0  0  0  0  0  0  0  0  0
   -2.2430   -2.3012    1.6705 H   0  0  0  0  0  0  0  0  0  0  0  0
   -5.0318   -1.0186    0.7669 H   0  0  0  0  0  0  0  0  0  0  0  0
   -4.5214   -0.6168   -0.9105 H   0  0  0  0  0  0  0  0  0  0  0  0
   -4.0759   -2.2077   -0.1950 H   0  0  0  0  0  0  0  0  0  0  0  0
   -2.1769   -0.3810   -1.3790 H   0  0  0  0  0  0  0  0  0  0  0  0
   -0.2253   -0.2862    0.8670 H   0  0  0  0  0  0  0  0  0  0  0  0
   -0.6261    1.0003   -0.3283 H   0  0  0  0  0  0  0  0  0  0  0  0
    0.5383   -1.7757   -0.9660 H   0  0  0  0  0  0  0  0  0  0  0  0
    0.0816    0.5381   -2.5776 H   0  0  0  0  0  0  0  0  0  0  0  0
    2.7069   -2.0569   -0.1636 H   0  0  0  0  0  0  0  0  0  0  0  0
    5.0046   -2.3591    0.6414 H   0  0  0  0  0  0  0  0  0  0  0  0
    5.4428    1.2301    0.1713 H   0  0  0  0  0  0  0  0  0  0  0  0
    4.6503    3.4768   -0.4680 H   0  0  0  0  0  0  0  0  0  0  0  0
    1.4566    1.9291   -1.2501 H   0  0  0  0  0  0  0  0  0  0  0  0
  1  2  1  0
  2  3  1  0
  2  4  1  0
  2  5  1  0
  5  6  1  0
  6  7  1  0
  7  8  1  0
  7  9  1  0
  9 10  2  0
 10 11  1  0
 11 12  1  0
 11 13  2  0
 13 14  1  0
 14 15  1  0
 14 16  2  0
 16  9  1  0
  1 17  1  0
  1 18  1  0
  1 19  1  0
  3 20  1  0
  3 21  1  0
  3 22  1  0
  4 23  1  0
  4 24  1  0
  4 25  1  0
  5 26  1  0
  6 27  1  0
  6 28  1  0
  7 29  1  0
  8 30  1  0
 10 31  1  0
 12 32  1  0
 13 33  1  0
 15 34  1  0
 16 35  1  0
M  END
$$$$
