
     RDKit          3D

 51 53  0  0  0  0  0  0  0  0999 V2000
   -2.2730   -0.1629   -1.2276 C   0  0  2  0  0  0  0  0  0  0  0  0
   -1.7479    1.1325   -0.7824 N   0  0  0  0  0  0  0  0  0  0  0  0
   -3.1731   -0.8417   -0.1715 C   0  0  0  0  0  0  0  0  0  0  0  0
   -4.3895   -0.0071    0.1386 C   0  0  0  0  0  0  0  0  0  0  0  0
   -4.4151    0.8211    1.2737 C   0  0  0  0  0  0  0  0  0  0  0  0
   -5.5351    1.6143    1.5416 C   0  0  0  0  0  0  0  0  0  0  0  0
   -6.6333    1.5908    0.6776 C   0  0  0  0  0  0  0  0  0  0  0  0
   -6.6127    0.7754   -0.4572 C   0  0  0  0  0  0  0  0  0  0  0  0
   -5.4947   -0.0193   -0.7290 C   0  0  0  0  0  0  0  0  0  0  0  0
   -1.1495   -1.0792   -1.6588 C   0  0  0  0  0  0  0  0  0  0  0  0
   -1.1220   -1.4559   -2.8623 O   0  0  0  0  0  0  0  0  0  0  0  0
   -0.1577   -1.5956   -0.7462 N   0  0  0  0  0  0  0  0  0  0  0  0
    0.4812   -2.8844   -0.9684 C   0  0  0  0  0  0  0  0  0  0  0  0
    1.5990   -2.9840    0.0612 C   0  0  0  0  0  0  0  0  0  0  0  0
    1.2988   -1.9137    1.1045 C   0  0  0  0  0  0  0  0  0  0  0  0
    0.3951   -0.8944    0.4082 C   0  0  1  0  0  0  0  0  0  0  0  0
    1.1883    0.3163   -0.0173 C   0  0  0  0  0  0  0  0  0  0  0  0
    1.1425    1.3574    0.6926 O   0  0  0  0  0  0  0  0  0  0  0  0
    2.0393    0.2725   -1.1735 N   0  0  0  0  0  0  0  0  0  0  0  0
    2.9876    1.3387   -1.4833 C   0  0  0  0  0  0  0  0  0  0  0  0
    4.1316    1.3105   -0.5068 C   0  0  0  0  0  0  0  0  0  0  0  0
    5.0389    0.2383   -0.5208 C   0  0  0  0  0  0  0  0  0  0  0  0
    6.0875    0.1910    0.4028 C   0  0  0  0  0  0  0  0  0  0  0  0
    6.2355    1.2104    1.3473 C   0  0  0  0  0  0  0  0  0  0  0  0
    5.3336    2.2784    1.3711 C   0  0  0  0  0  0  0  0  0  0  0  0
    5.4756    3.2642    2.2910 F   0  0  0  0  0  0  0  0  0  0  0  0
    4.2829    2.3290    0.4490 C   0  0  0  0  0  0  0  0  0  0  0  0
   -2.9058    0.0165   -2.1286 H   0  0  0  0  0  0  0  0  0  0  0  0
   -2.4656    1.8678   -0.9792 H   0  0  0  0  0  0  0  0  0  0  0  0
   -1.6091    1.1348    0.2526 H   0  0  0  0  0  0  0  0  0  0  0  0
   -3.5069   -1.8300   -0.5584 H   0  0  0  0  0  0  0  0  0  0  0  0
   -2.6063   -1.0470    0.7600 H   0  0  0  0  0  0  0  0  0  0  0  0
   -3.5692    0.8539    1.9490 H   0  0  0  0  0  0  0  0  0  0  0  0
   -5.5506    2.2492    2.4181 H   0  0  0  0  0  0  0  0  0  0  0  0
   -7.4990    2.2061    0.8860 H   0  0  0  0  0  0  0  0  0  0  0  0
   -7.4622    0.7608   -1.1277 H   0  0  0  0  0  0  0  0  0  0  0  0
   -5.4883   -0.6421   -1.6151 H   0  0  0  0  0  0  0  0  0  0  0  0
    0.8987   -2.9445   -1.9971 H   0  0  0  0  0  0  0  0  0  0  0  0
   -0.2620   -3.6967   -0.8165 H   0  0  0  0  0  0  0  0  0  0  0  0
    1.6398   -3.9960    0.5195 H   0  0  0  0  0  0  0  0  0  0  0  0
    2.5758   -2.7635   -0.4234 H   0  0  0  0  0  0  0  0  0  0  0  0
    2.2358   -1.4660    1.5053 H   0  0  0  0  0  0  0  0  0  0  0  0
    0.7442   -2.3792    1.9493 H   0  0  0  0  0  0  0  0  0  0  0  0
   -0.4103   -0.5989    1.1102 H   0  0  0  0  0  0  0  0  0  0  0  0
    2.0255   -0.5662   -1.7952 H   0  0  0  0  0  0  0  0  0  0  0  0
    2.4656    2.3204   -1.4764 H   0  0  0  0  0  0  0  0  0  0  0  0
    3.3879    1.1882   -2.5093 H   0  0  0  0  0  0  0  0  0  0  0  0
    4.9296   -0.5613   -1.2432 H   0  0  0  0  0  0  0  0  0  0  0  0
    6.7839   -0.6374    0.3879 H   0  0  0  0  0  0  0  0  0  0  0  0
    7.0477    1.1706    2.0617 H   0  0  0  0  0  0  0  0  0  0  0  0
    3.5870    3.1581    0.4827 H   0  0  0  0  0  0  0  0  0  0  0  0
  1  2  1  0
  1  3  1  0
  3  4  1  0
  4  5  2  0
  5  6  1  0
  6  7  2  0
  7  8  1  0
  8  9  2  0
  1 10  1  0
 10 11  2  0
 10 12  1  0
 12 13  1  0
 13 14  1  0
 14 15  1  0
 15 16  1  0
 16 17  1  0
 17 18  2  0
 17 19  1  0
 19 20  1  0
 20 21  1  0
 21 22  2  0
 22 23  1  0
 23 24  2  0
 24 25  1  0
 25 26  1  0
 25 27  2  0
  9  4  1  0
 16 12  1  0
 27 21  1  0
  1 28  1  6
  2 29  1  0
  2 30  1  0
  3 31  1  0
  3 32  1  0
  5 33  1  0
  6 34  1  0
  7 35  1  0
  8 36  1  0
  9 37  1  0
 13 38  1  0
 13 39  1  0
 14 40  1  0
 14 41  1  0
 15 42  1  0
 15 43  1  0
 16 44  1  1
 19 45  1  0
 20 46  1  0
 20 47  1  0
 22 48  1  0
 23 49  1  0
 24 50  1  0
 27 51  1  0
M  END
$$$$
