
     RDKit          3D

 51 52  0  0  0  0  0  0  0  0999 V2000
   -3.1539   -0.2958   -0.2792 C   0  0  1  0  0  0  0  0  0  0  0  0
   -4.5237   -0.7814    0.2260 C   0  0  0  0  0  0  0  0  0  0  0  0
   -2.2715    0.2802    0.8678 C   0  0  2  0  0  0  0  0  0  0  0  0
   -2.4964    1.8190    1.0504 C   0  0  0  0  0  0  0  0  0  0  0  0
   -1.7052    2.6858    0.0550 C   0  0  0  0  0  0  0  0  0  0  0  0
   -2.2430    2.2828    2.4923 C   0  0  0  0  0  0  0  0  0  0  0  0
   -0.8866   -0.1338    0.4665 C   0  0  0  0  0  0  0  0  0  0  0  0
   -0.8973   -1.0101   -0.5958 C   0  0  0  0  0  0  0  0  0  0  0  0
    0.2919   -1.5683   -1.0795 C   0  0  0  0  0  0  0  0  0  0  0  0
    1.5176   -1.2307   -0.4760 C   0  0  0  0  0  0  0  0  0  0  0  0
    2.7821   -1.8689   -0.9862 C   0  0  0  0  0  0  0  0  0  0  0  0
    1.5274   -0.3308    0.6236 C   0  0  0  0  0  0  0  0  0  0  0  0
    0.3127    0.1810    1.1142 C   0  0  0  0  0  0  0  0  0  0  0  0
    2.7771    0.0778    1.2962 C   0  0  0  0  0  0  0  0  0  0  0  0
    2.9240   -0.1709    2.5233 O   0  0  0  0  0  0  0  0  0  0  0  0
    3.8071    0.9059    0.5790 C   0  0  0  0  0  0  0  0  0  0  0  0
    5.2089    0.3038    0.7167 C   0  0  0  0  0  0  0  0  0  0  0  0
    6.2070    1.1305   -0.0299 C   0  0  0  0  0  0  0  0  0  0  0  0
    6.8265    2.2052    0.6000 O   0  0  0  0  0  0  0  0  0  0  0  0
    6.4564    0.8796   -1.2394 O   0  0  0  0  0  0  0  0  0  0  0  0
   -2.2867   -1.3683   -1.0261 C   0  0  0  0  0  0  0  0  0  0  0  0
   -2.5812   -2.8199   -0.5856 C   0  0  0  0  0  0  0  0  0  0  0  0
   -2.4452   -1.2398   -2.5542 C   0  0  0  0  0  0  0  0  0  0  0  0
   -3.3714    0.5266   -0.9980 H   0  0  0  0  0  0  0  0  0  0  0  0
   -4.4146   -1.5531    1.0164 H   0  0  0  0  0  0  0  0  0  0  0  0
   -5.0921    0.0711    0.6536 H   0  0  0  0  0  0  0  0  0  0  0  0
   -5.1137   -1.1988   -0.6170 H   0  0  0  0  0  0  0  0  0  0  0  0
   -2.5136   -0.2534    1.8142 H   0  0  0  0  0  0  0  0  0  0  0  0
   -3.5744    2.0238    0.8648 H   0  0  0  0  0  0  0  0  0  0  0  0
   -1.8627    2.3341   -0.9858 H   0  0  0  0  0  0  0  0  0  0  0  0
   -0.6185    2.6634    0.2792 H   0  0  0  0  0  0  0  0  0  0  0  0
   -2.0489    3.7403    0.1168 H   0  0  0  0  0  0  0  0  0  0  0  0
   -2.5845    3.3331    2.6142 H   0  0  0  0  0  0  0  0  0  0  0  0
   -2.8160    1.6558    3.2079 H   0  0  0  0  0  0  0  0  0  0  0  0
   -1.1697    2.2434    2.7568 H   0  0  0  0  0  0  0  0  0  0  0  0
    0.2597   -2.2785   -1.8959 H   0  0  0  0  0  0  0  0  0  0  0  0
    2.5617   -2.7291   -1.6536 H   0  0  0  0  0  0  0  0  0  0  0  0
    3.3838   -2.2544   -0.1371 H   0  0  0  0  0  0  0  0  0  0  0  0
    3.3745   -1.1289   -1.5617 H   0  0  0  0  0  0  0  0  0  0  0  0
    0.3154    0.8233    1.9805 H   0  0  0  0  0  0  0  0  0  0  0  0
    3.7989    1.9280    1.0161 H   0  0  0  0  0  0  0  0  0  0  0  0
    3.5417    1.0007   -0.4963 H   0  0  0  0  0  0  0  0  0  0  0  0
    5.2227   -0.7336    0.3203 H   0  0  0  0  0  0  0  0  0  0  0  0
    5.5017    0.2672    1.7884 H   0  0  0  0  0  0  0  0  0  0  0  0
    7.4923    2.7849    0.1032 H   0  0  0  0  0  0  0  0  0  0  0  0
   -2.4806   -2.9253    0.5163 H   0  0  0  0  0  0  0  0  0  0  0  0
   -1.8683   -3.5256   -1.0638 H   0  0  0  0  0  0  0  0  0  0  0  0
   -3.6055   -3.1254   -0.8862 H   0  0  0  0  0  0  0  0  0  0  0  0
   -3.5095   -1.3808   -2.8399 H   0  0  0  0  0  0  0  0  0  0  0  0
   -1.8398   -2.0059   -3.0838 H   0  0  0  0  0  0  0  0  0  0  0  0
   -2.1166   -0.2360   -2.9010 H   0  0  0  0  0  0  0  0  0  0  0  0
  1  2  1  0
  1  3  1  0
  3  4  1  0
  4  5  1  0
  4  6  1  0
  3  7  1  0
  7  8  2  0
  8  9  1  0
  9 10  2  0
 10 11  1  0
 10 12  1  0
 12 13  2  0
 12 14  1  0
 14 15  2  0
 14 16  1  0
 16 17  1  0
 17 18  1  0
 18 19  1  0
 18 20  2  0
  8 21  1  0
 21 22  1  0
 21 23  1  0
 21  1  1  0
 13  7  1  0
  1 24  1  6
  2 25  1  0
  2 26  1  0
  2 27  1  0
  3 28  1  1
  4 29  1  0
  5 30  1  0
  5 31  1  0
  5 32  1  0
  6 33  1  0
  6 34  1  0
  6 35  1  0
  9 36  1  0
 11 37  1  0
 11 38  1  0
 11 39  1  0
 13 40  1  0
 16 41  1  0
 16 42  1  0
 17 43  1  0
 17 44  1  0
 19 45  1  0
 22 46  1  0
 22 47  1  0
 22 48  1  0
 23 49  1  0
 23 50  1  0
 23 51  1  0
M  END
$$$$
