
     RDKit          3D

 34 34  0  0  0  0  0  0  0  0999 V2000
    4.1532    0.2480    0.2557 C   0  0  0  0  0  0  0  0  0  0  0  0
    2.9162   -0.5593   -0.1294 C   0  0  0  0  0  0  0  0  0  0  0  0
    1.6507    0.3149   -0.1024 C   0  0  0  0  0  0  0  0  0  0  0  0
    0.3630   -0.4928   -0.4492 C   0  0  0  0  0  0  0  0  0  0  0  0
    0.2678   -0.6878   -1.9806 C   0  0  0  0  0  0  0  0  0  0  0  0
   -0.9844    0.1026    0.1450 C   0  0  0  0  0  0  0  0  0  0  0  0
   -0.9322    0.3432    1.6890 C   0  0  0  0  0  0  0  0  0  0  0  0
   -0.4324   -0.8398    2.5273 C   0  0  0  0  0  0  0  0  0  0  0  0
   -1.2953    1.4606   -0.4932 C   0  0  0  0  0  0  0  0  0  0  0  0
   -0.3920    2.3361   -0.5704 O   0  0  0  0  0  0  0  0  0  0  0  0
   -2.6160    1.8179   -0.9110 N   0  0  0  0  0  0  0  0  0  0  0  0
   -3.6930    0.8897   -0.8438 C   0  0  0  0  0  0  0  0  0  0  0  0
   -5.2049    1.3534   -1.2676 S   0  0  0  0  0  0  0  0  0  0  0  0
   -3.4394   -0.4582   -0.4656 N   0  0  0  0  0  0  0  0  0  0  0  0
   -2.1229   -0.8922   -0.1167 C   0  0  0  0  0  0  0  0  0  0  0  0
   -1.9231   -2.1287    0.0342 O   0  0  0  0  0  0  0  0  0  0  0  0
    5.0494   -0.4068    0.2238 H   0  0  0  0  0  0  0  0  0  0  0  0
    4.0461    0.6523    1.2849 H   0  0  0  0  0  0  0  0  0  0  0  0
    4.3020    1.0885   -0.4553 H   0  0  0  0  0  0  0  0  0  0  0  0
    2.8056   -1.4023    0.5870 H   0  0  0  0  0  0  0  0  0  0  0  0
    3.0748   -0.9795   -1.1442 H   0  0  0  0  0  0  0  0  0  0  0  0
    1.7848    1.1541   -0.8187 H   0  0  0  0  0  0  0  0  0  0  0  0
    1.5816    0.7566    0.9092 H   0  0  0  0  0  0  0  0  0  0  0  0
    0.4930   -1.5098   -0.0183 H   0  0  0  0  0  0  0  0  0  0  0  0
    1.1567   -1.2276   -2.3652 H   0  0  0  0  0  0  0  0  0  0  0  0
    0.1992    0.2901   -2.5023 H   0  0  0  0  0  0  0  0  0  0  0  0
   -0.6192   -1.2950   -2.2545 H   0  0  0  0  0  0  0  0  0  0  0  0
   -0.3052    1.2275    1.9318 H   0  0  0  0  0  0  0  0  0  0  0  0
   -1.9533    0.6046    2.0482 H   0  0  0  0  0  0  0  0  0  0  0  0
    0.6219   -1.0856    2.2875 H   0  0  0  0  0  0  0  0  0  0  0  0
   -0.4777   -0.5670    3.6027 H   0  0  0  0  0  0  0  0  0  0  0  0
   -1.0682   -1.7352    2.3789 H   0  0  0  0  0  0  0  0  0  0  0  0
   -2.7922    2.7860   -1.2637 H   0  0  0  0  0  0  0  0  0  0  0  0
   -4.2147   -1.1585   -0.4981 H   0  0  0  0  0  0  0  0  0  0  0  0
  1  2  1  0
  2  3  1  0
  3  4  1  0
  4  5  1  0
  4  6  1  0
  6  7  1  0
  7  8  1  0
  6  9  1  0
  9 10  2  0
  9 11  1  0
 11 12  1  0
 12 13  2  0
 12 14  1  0
 14 15  1  0
 15 16  2  0
 15  6  1  0
  1 17  1  0
  1 18  1  0
  1 19  1  0
  2 20  1  0
  2 21  1  0
  3 22  1  0
  3 23  1  0
  4 24  1  0
  5 25  1  0
  5 26  1  0
  5 27  1  0
  7 28  1  0
  7 29  1  0
  8 30  1  0
  8 31  1  0
  8 32  1  0
 11 33  1  0
 14 34  1  0
M  END
$$$$
