
     RDKit          3D

 17 18  0  0  0  0  0  0  0  0999 V2000
   -3.0011   -0.3348   -0.1355 N   0  0  0  0  0  0  0  0  0  0  0  0
   -1.9530    0.0749    0.7928 C   0  0  0  0  0  0  0  0  0  0  0  0
   -1.0071   -1.0274    1.0036 N   0  0  0  0  0  0  0  0  0  0  0  0
    0.1295   -0.5862    0.5918 C   0  0  0  0  0  0  0  0  0  0  0  0
    1.3355   -1.2865    0.5952 C   0  0  0  0  0  0  0  0  0  0  0  0
    2.4785   -0.6340    0.0990 C   0  0  0  0  0  0  0  0  0  0  0  0
    2.3897    0.6891   -0.3846 C   0  0  0  0  0  0  0  0  0  0  0  0
    1.1573    1.3671   -0.3746 C   0  0  0  0  0  0  0  0  0  0  0  0
    0.0437    0.6923    0.1246 C   0  0  0  0  0  0  0  0  0  0  0  0
   -1.1538    1.1567    0.2053 N   0  0  0  0  0  0  0  0  0  0  0  0
   -3.6565    0.4716   -0.2542 H   0  0  0  0  0  0  0  0  0  0  0  0
   -3.5510   -1.0990    0.3198 H   0  0  0  0  0  0  0  0  0  0  0  0
   -2.3870    0.4009    1.7646 H   0  0  0  0  0  0  0  0  0  0  0  0
    1.3931   -2.3014    0.9675 H   0  0  0  0  0  0  0  0  0  0  0  0
    3.4302   -1.1491    0.0876 H   0  0  0  0  0  0  0  0  0  0  0  0
    3.2735    1.1843   -0.7652 H   0  0  0  0  0  0  0  0  0  0  0  0
    1.0786    2.3817   -0.7440 H   0  0  0  0  0  0  0  0  0  0  0  0
  1  2  1  0
  2  3  1  0
  3  4  2  0
  4  5  1  0
  5  6  2  0
  6  7  1  0
  7  8  2  0
  8  9  1  0
  9 10  2  0
 10  2  1  0
  9  4  1  0
  1 11  1  0
  1 12  1  0
  2 13  1  0
  5 14  1  0
  6 15  1  0
  7 16  1  0
  8 17  1  0
M  END
$$$$
