
     RDKit          3D

 43 46  0  0  0  0  0  0  0  0999 V2000
   -1.3992   -2.3071    0.8447 C   0  0  0  0  0  0  0  0  0  0  0  0
   -2.0718   -1.0150    0.4269 C   0  0  0  0  0  0  0  0  0  0  0  0
   -1.3009    0.1241    0.0800 C   0  0  0  0  0  0  0  0  0  0  0  0
   -1.9230    1.2823   -0.2589 N   0  0  0  0  0  0  0  0  0  0  0  0
   -3.2707    1.4003   -0.3228 C   0  0  0  0  0  0  0  0  0  0  0  0
   -3.8372    2.6293   -0.6807 C   0  0  0  0  0  0  0  0  0  0  0  0
   -5.2237    2.7666   -0.7610 C   0  0  0  0  0  0  0  0  0  0  0  0
   -6.0514    1.6776   -0.4833 C   0  0  0  0  0  0  0  0  0  0  0  0
   -7.3981    1.8165   -0.5581 F   0  0  0  0  0  0  0  0  0  0  0  0
   -5.4961    0.4453   -0.1250 C   0  0  0  0  0  0  0  0  0  0  0  0
   -4.0945    0.2876   -0.0434 C   0  0  0  0  0  0  0  0  0  0  0  0
   -3.4857   -0.9362    0.3271 C   0  0  0  0  0  0  0  0  0  0  0  0
   -4.3185   -2.1273    0.5937 C   0  0  0  0  0  0  0  0  0  0  0  0
   -4.4746   -2.5915    1.8959 O   0  0  0  0  0  0  0  0  0  0  0  0
   -4.9055   -2.7090   -0.3573 O   0  0  0  0  0  0  0  0  0  0  0  0
    0.1773    0.1145    0.0576 C   0  0  0  0  0  0  0  0  0  0  0  0
    0.8925    1.0638    0.8016 C   0  0  0  0  0  0  0  0  0  0  0  0
    2.2896    1.0832    0.7652 C   0  0  0  0  0  0  0  0  0  0  0  0
    2.9948    0.1590   -0.0249 C   0  0  0  0  0  0  0  0  0  0  0  0
    2.2742   -0.7731   -0.7913 C   0  0  0  0  0  0  0  0  0  0  0  0
    0.8772   -0.7911   -0.7549 C   0  0  0  0  0  0  0  0  0  0  0  0
    4.4773    0.1853   -0.0664 C   0  0  0  0  0  0  0  0  0  0  0  0
    5.1548    1.4083   -0.2261 C   0  0  0  0  0  0  0  0  0  0  0  0
    6.5514    1.4438   -0.2723 C   0  0  0  0  0  0  0  0  0  0  0  0
    7.2863    0.2623   -0.1563 C   0  0  0  0  0  0  0  0  0  0  0  0
    6.6263   -0.9573    0.0090 C   0  0  0  0  0  0  0  0  0  0  0  0
    5.2288   -1.0017    0.0554 C   0  0  0  0  0  0  0  0  0  0  0  0
    4.6159   -2.1962    0.2548 F   0  0  0  0  0  0  0  0  0  0  0  0
   -1.2940   -2.9735   -0.0364 H   0  0  0  0  0  0  0  0  0  0  0  0
   -1.9797   -2.8328    1.6279 H   0  0  0  0  0  0  0  0  0  0  0  0
   -0.3995   -2.1255    1.2894 H   0  0  0  0  0  0  0  0  0  0  0  0
   -3.2028    3.4799   -0.8983 H   0  0  0  0  0  0  0  0  0  0  0  0
   -5.6563    3.7193   -1.0379 H   0  0  0  0  0  0  0  0  0  0  0  0
   -6.1697   -0.3729    0.0931 H   0  0  0  0  0  0  0  0  0  0  0  0
   -5.0486   -3.4026    2.0927 H   0  0  0  0  0  0  0  0  0  0  0  0
    0.3681    1.7826    1.4195 H   0  0  0  0  0  0  0  0  0  0  0  0
    2.8206    1.8126    1.3642 H   0  0  0  0  0  0  0  0  0  0  0  0
    2.7912   -1.4727   -1.4361 H   0  0  0  0  0  0  0  0  0  0  0  0
    0.3413   -1.5031   -1.3702 H   0  0  0  0  0  0  0  0  0  0  0  0
    4.6024    2.3340   -0.3306 H   0  0  0  0  0  0  0  0  0  0  0  0
    7.0640    2.3884   -0.4006 H   0  0  0  0  0  0  0  0  0  0  0  0
    8.3677    0.2921   -0.1914 H   0  0  0  0  0  0  0  0  0  0  0  0
    7.2000   -1.8700    0.1077 H   0  0  0  0  0  0  0  0  0  0  0  0
  1  2  1  0
  2  3  2  0
  3  4  1  0
  4  5  2  0
  5  6  1  0
  6  7  2  0
  7  8  1  0
  8  9  1  0
  8 10  2  0
 10 11  1  0
 11 12  2  0
 12 13  1  0
 13 14  1  0
 13 15  2  0
  3 16  1  0
 16 17  2  0
 17 18  1  0
 18 19  2  0
 19 20  1  0
 20 21  2  0
 19 22  1  0
 22 23  2  0
 23 24  1  0
 24 25  2  0
 25 26  1  0
 26 27  2  0
 27 28  1  0
 12  2  1  0
 21 16  1  0
 27 22  1  0
 11  5  1  0
  1 29  1  0
  1 30  1  0
  1 31  1  0
  6 32  1  0
  7 33  1  0
 10 34  1  0
 14 35  1  0
 17 36  1  0
 18 37  1  0
 20 38  1  0
 21 39  1  0
 23 40  1  0
 24 41  1  0
 25 42  1  0
 26 43  1  0
M  END
$$$$
