
     RDKit          3D

 46 47  0  0  0  0  0  0  0  0999 V2000
   -3.8150   -0.6584    0.2274 C   0  0  2  0  0  0  0  0  0  0  0  0
   -4.5284    0.5728   -0.3608 C   0  0  0  0  0  0  0  0  0  0  0  0
   -6.0485    0.5120   -0.1609 C   0  0  0  0  0  0  0  0  0  0  0  0
   -6.6962    1.7465   -0.7031 C   0  0  0  0  0  0  0  0  0  0  0  0
   -7.0642    1.8040   -2.0436 O   0  0  0  0  0  0  0  0  0  0  0  0
   -6.8719    2.7472    0.0423 O   0  0  0  0  0  0  0  0  0  0  0  0
   -2.3636   -0.4599    0.1707 N   0  0  0  0  0  0  0  0  0  0  0  0
   -1.6269    0.1378    1.2511 C   0  0  0  0  0  0  0  0  0  0  0  0
   -2.2468    0.6166    2.2404 O   0  0  0  0  0  0  0  0  0  0  0  0
   -0.1467    0.2195    1.2128 C   0  0  0  0  0  0  0  0  0  0  0  0
    0.6089   -0.6838    0.4427 C   0  0  0  0  0  0  0  0  0  0  0  0
    2.0098   -0.6008    0.4163 C   0  0  0  0  0  0  0  0  0  0  0  0
    2.6691    0.3929    1.1747 C   0  0  0  0  0  0  0  0  0  0  0  0
    1.9161    1.2861    1.9484 C   0  0  0  0  0  0  0  0  0  0  0  0
    0.5222    1.1969    1.9706 C   0  0  0  0  0  0  0  0  0  0  0  0
    4.0696    0.4765    1.1472 C   0  0  0  0  0  0  0  0  0  0  0  0
    4.8251   -0.4297    0.3811 C   0  0  0  0  0  0  0  0  0  0  0  0
    4.1569   -1.4030   -0.3824 C   0  0  0  0  0  0  0  0  0  0  0  0
    2.7632   -1.4932   -0.3591 C   0  0  0  0  0  0  0  0  0  0  0  0
    6.3300   -0.3087    0.3137 C   0  0  0  0  0  0  0  0  0  0  0  0
    6.8285    0.2168    1.4935 F   0  0  0  0  0  0  0  0  0  0  0  0
    6.9053   -1.5536    0.1243 F   0  0  0  0  0  0  0  0  0  0  0  0
    6.8083    0.7814   -1.0654 P   0  0  0  0  0  5  0  0  0  0  0  0
    8.4939    0.9255   -1.1077 O   0  0  0  0  0  0  0  0  0  0  0  0
    6.1302    2.3170   -0.8460 O   0  0  0  0  0  0  0  0  0  0  0  0
    6.3232    0.1965   -2.3733 O   0  0  0  0  0  0  0  0  0  0  0  0
   -4.1832   -1.9156   -0.5209 C   0  0  0  0  0  0  0  0  0  0  0  0
   -4.9022   -2.9634    0.1308 N   0  0  0  0  0  0  0  0  0  0  0  0
   -3.8686   -2.0421   -1.7352 O   0  0  0  0  0  0  0  0  0  0  0  0
   -4.1253   -0.7754    1.2895 H   0  0  0  0  0  0  0  0  0  0  0  0
   -4.1396    1.4844    0.1453 H   0  0  0  0  0  0  0  0  0  0  0  0
   -4.2940    0.6624   -1.4451 H   0  0  0  0  0  0  0  0  0  0  0  0
   -6.4684   -0.3720   -0.6868 H   0  0  0  0  0  0  0  0  0  0  0  0
   -6.2846    0.4161    0.9215 H   0  0  0  0  0  0  0  0  0  0  0  0
   -7.4888    2.6384   -2.4303 H   0  0  0  0  0  0  0  0  0  0  0  0
   -1.8872   -0.5791   -0.7518 H   0  0  0  0  0  0  0  0  0  0  0  0
    0.1149   -1.4664   -0.1200 H   0  0  0  0  0  0  0  0  0  0  0  0
    2.4048    2.0536    2.5370 H   0  0  0  0  0  0  0  0  0  0  0  0
   -0.0352    1.9026    2.5740 H   0  0  0  0  0  0  0  0  0  0  0  0
    4.5713    1.2508    1.7160 H   0  0  0  0  0  0  0  0  0  0  0  0
    4.7150   -2.0925   -1.0035 H   0  0  0  0  0  0  0  0  0  0  0  0
    2.2745   -2.2562   -0.9534 H   0  0  0  0  0  0  0  0  0  0  0  0
    8.8246    0.0055   -1.2667 H   0  0  0  0  0  0  0  0  0  0  0  0
    5.1651    2.2015   -1.0361 H   0  0  0  0  0  0  0  0  0  0  0  0
   -5.1582   -3.8295   -0.3931 H   0  0  0  0  0  0  0  0  0  0  0  0
   -5.1871   -2.8780    1.1315 H   0  0  0  0  0  0  0  0  0  0  0  0
  1  2  1  0
  2  3  1  0
  3  4  1  0
  4  5  1  0
  4  6  2  0
  1  7  1  0
  7  8  1  0
  8  9  2  0
  8 10  1  0
 10 11  2  0
 11 12  1  0
 12 13  2  0
 13 14  1  0
 14 15  2  0
 13 16  1  0
 16 17  2  0
 17 18  1  0
 18 19  2  0
 17 20  1  0
 20 21  1  0
 20 22  1  0
 20 23  1  0
 23 24  1  0
 23 25  1  0
 23 26  2  0
  1 27  1  0
 27 28  1  0
 27 29  2  0
 15 10  1  0
 19 12  1  0
  1 30  1  1
  2 31  1  0
  2 32  1  0
  3 33  1  0
  3 34  1  0
  5 35  1  0
  7 36  1  0
 11 37  1  0
 14 38  1  0
 15 39  1  0
 16 40  1  0
 18 41  1  0
 19 42  1  0
 24 43  1  0
 25 44  1  0
 28 45  1  0
 28 46  1  0
M  END
$$$$
