
     RDKit          3D

 29 29  0  0  0  0  0  0  0  0999 V2000
   -2.2180   -0.4936    1.5013 C   0  0  1  0  0  0  0  0  0  0  0  0
   -2.2779   -1.8968    1.4131 O   0  0  0  0  0  0  0  0  0  0  0  0
   -0.8862   -0.0610    1.7319 O   0  0  0  0  0  0  0  0  0  0  0  0
   -0.0190   -0.4224    0.6660 C   0  0  2  0  0  0  0  0  0  0  0  0
    1.4085   -0.0204    1.0646 C   0  0  0  0  0  0  0  0  0  0  0  0
    2.3362   -0.6068    0.1808 O   0  0  0  0  0  0  0  0  0  0  0  0
    3.8986   -0.0637    0.5968 P   0  0  0  0  0  5  0  0  0  0  0  0
    5.0195   -0.7448   -0.4715 O   0  0  0  0  0  0  0  0  0  0  0  0
    3.9824    1.6236    0.4852 O   0  0  0  0  0  0  0  0  0  0  0  0
    4.2407   -0.4929    2.0060 O   0  0  0  0  0  0  0  0  0  0  0  0
   -0.4538    0.2687   -0.6521 C   0  0  1  0  0  0  0  0  0  0  0  0
    0.3630   -0.1528   -1.7162 O   0  0  0  0  0  0  0  0  0  0  0  0
   -1.9123   -0.1011   -0.9710 C   0  0  2  0  0  0  0  0  0  0  0  0
   -2.3724    0.6369   -2.0744 O   0  0  0  0  0  0  0  0  0  0  0  0
   -2.8109    0.1753    0.2460 C   0  0  2  0  0  0  0  0  0  0  0  0
   -2.9166    1.5587    0.4744 O   0  0  0  0  0  0  0  0  0  0  0  0
   -2.8231   -0.1687    2.3788 H   0  0  0  0  0  0  0  0  0  0  0  0
   -3.2317   -2.1517    1.5184 H   0  0  0  0  0  0  0  0  0  0  0  0
   -0.0197   -1.5285    0.5263 H   0  0  0  0  0  0  0  0  0  0  0  0
    1.5924   -0.3873    2.1001 H   0  0  0  0  0  0  0  0  0  0  0  0
    1.4820    1.0915    1.0572 H   0  0  0  0  0  0  0  0  0  0  0  0
    4.7046   -0.4763   -1.3713 H   0  0  0  0  0  0  0  0  0  0  0  0
    3.6814    1.8301   -0.4356 H   0  0  0  0  0  0  0  0  0  0  0  0
   -0.3939    1.3772   -0.5225 H   0  0  0  0  0  0  0  0  0  0  0  0
    1.0481    0.5516   -1.8584 H   0  0  0  0  0  0  0  0  0  0  0  0
   -1.9710   -1.1921   -1.2019 H   0  0  0  0  0  0  0  0  0  0  0  0
   -2.0050    0.2014   -2.8874 H   0  0  0  0  0  0  0  0  0  0  0  0
   -3.8234   -0.2548    0.0589 H   0  0  0  0  0  0  0  0  0  0  0  0
   -3.6227    1.9007   -0.1339 H   0  0  0  0  0  0  0  0  0  0  0  0
  1  2  1  0
  1  3  1  0
  3  4  1  0
  4  5  1  0
  5  6  1  0
  6  7  1  0
  7  8  1  0
  7  9  1  0
  7 10  2  0
  4 11  1  0
 11 12  1  0
 11 13  1  0
 13 14  1  0
 13 15  1  0
 15 16  1  0
 15  1  1  0
  1 17  1  1
  2 18  1  0
  4 19  1  6
  5 20  1  0
  5 21  1  0
  8 22  1  0
  9 23  1  0
 11 24  1  1
 12 25  1  0
 13 26  1  6
 14 27  1  0
 15 28  1  6
 16 29  1  0
M  END
$$$$
