
     RDKit          3D

  9  8  0  0  0  0  0  0  0  0999 V2000
   -1.4599   -0.2231    0.5960 O   0  0  0  0  0  0  0  0  0  0  0  0
   -0.4732    0.4904   -0.0993 C   0  0  0  0  0  0  0  0  0  0  0  0
    0.8861   -0.1882    0.0510 C   0  0  0  0  0  0  0  0  0  0  0  0
    1.2171   -0.2879    1.3903 F   0  0  0  0  0  0  0  0  0  0  0  0
    0.8477   -1.4541   -0.5051 F   0  0  0  0  0  0  0  0  0  0  0  0
    1.8507    0.5602   -0.5982 F   0  0  0  0  0  0  0  0  0  0  0  0
   -1.7139   -0.9922    0.0219 H   0  0  0  0  0  0  0  0  0  0  0  0
   -0.4155    1.5169    0.3210 H   0  0  0  0  0  0  0  0  0  0  0  0
   -0.7391    0.5780   -1.1776 H   0  0  0  0  0  0  0  0  0  0  0  0
  1  2  1  0
  2  3  1  0
  3  4  1  0
  3  5  1  0
  3  6  1  0
  1  7  1  0
  2  8  1  0
  2  9  1  0
M  END
$$$$
