
     RDKit          3D

 76 81  0  0  0  0  0  0  0  0999 V2000
   11.8178   -3.1534    0.9021 O   0  0  0  0  0  0  0  0  0  0  0  0
   11.7562   -1.8230    0.4991 C   0  0  0  0  0  0  0  0  0  0  0  0
   12.8168   -1.1479    0.4014 O   0  0  0  0  0  0  0  0  0  0  0  0
   10.4229   -1.1927    0.2053 C   0  0  0  0  0  0  0  0  0  0  0  0
   10.0430   -0.1608    1.2996 C   0  0  0  0  0  0  0  0  0  0  0  0
    9.2094    1.0134    0.7568 C   0  0  0  0  0  0  0  0  0  0  0  0
    8.3650    0.5773   -0.3609 N   0  0  0  0  0  0  0  0  0  0  0  0
    8.9998   -0.0452   -1.5351 C   0  0  0  0  0  0  0  0  0  0  0  0
   10.4070   -0.5686   -1.2024 C   0  0  0  0  0  0  0  0  0  0  0  0
    6.9455    0.4522   -0.1659 C   0  0  0  0  0  0  0  0  0  0  0  0
    6.0250    0.9599   -1.1013 C   0  0  0  0  0  0  0  0  0  0  0  0
    6.5373    1.8706   -2.5154 Cl  0  0  0  0  0  0  0  0  0  0  0  0
    4.6562    0.7949   -0.8697 C   0  0  0  0  0  0  0  0  0  0  0  0
    4.2029    0.1310    0.2814 C   0  0  0  0  0  0  0  0  0  0  0  0
    5.1575   -0.3343    1.1986 C   0  0  0  0  0  0  0  0  0  0  0  0
    6.4831   -0.1675    0.9542 N   0  0  0  0  0  0  0  0  0  0  0  0
    2.7556   -0.0483    0.5502 C   0  0  0  0  0  0  0  0  0  0  0  0
    2.3690   -0.2400    1.7357 O   0  0  0  0  0  0  0  0  0  0  0  0
    1.7976   -0.0370   -0.5225 N   0  0  0  0  0  0  0  0  0  0  0  0
    0.3824    0.0592   -0.3177 C   0  0  0  0  0  0  0  0  0  0  0  0
   -0.1959    0.2540    0.8894 N   0  0  0  0  0  0  0  0  0  0  0  0
   -1.5514    0.3270    0.8005 C   0  0  0  0  0  0  0  0  0  0  0  0
   -2.3745    0.5867    1.9954 C   0  0  0  0  0  0  0  0  0  0  0  0
   -3.6297    1.1881    2.0353 C   0  0  0  0  0  0  0  0  0  0  0  0
   -4.1322    1.3252    3.3341 C   0  0  0  0  0  0  0  0  0  0  0  0
   -5.6910    2.0452    3.6808 Cl  0  0  0  0  0  0  0  0  0  0  0  0
   -3.2799    0.8548    4.3236 C   0  0  0  0  0  0  0  0  0  0  0  0
   -1.8938    0.2667    3.5762 S   0  0  0  0  0  0  0  0  0  0  0  0
   -2.0425    0.1831   -0.5008 C   0  0  0  0  0  0  0  0  0  0  0  0
   -0.7513   -0.0307   -1.5581 S   0  0  0  0  0  0  0  0  0  0  0  0
   -3.4195    0.0851   -0.8832 N   0  0  0  0  0  0  0  0  0  0  0  0
   -4.1965   -1.0838   -0.4521 C   0  0  0  0  0  0  0  0  0  0  0  0
   -5.6611   -0.9451   -0.8703 C   0  0  0  0  0  0  0  0  0  0  0  0
   -6.0690    0.4631   -0.6957 N   0  0  0  0  0  0  0  0  0  0  0  0
   -5.4021    1.3529   -1.6747 C   0  0  0  0  0  0  0  0  0  0  0  0
   -3.9353    0.9527   -1.9460 C   0  0  0  0  0  0  0  0  0  0  0  0
   -7.5349    0.7014   -0.6294 C   0  0  0  0  0  0  0  0  0  0  0  0
   -8.3462    0.0268   -1.7792 C   0  0  0  0  0  0  0  0  0  0  0  0
   -9.1491   -1.1910   -1.3032 C   0  0  0  0  0  0  0  0  0  0  0  0
  -10.1222   -0.8324   -0.1627 C   0  0  0  0  0  0  0  0  0  0  0  0
   -9.6033    0.2791    0.7727 C   0  0  0  0  0  0  0  0  0  0  0  0
   -8.0740    0.3565    0.7792 C   0  0  0  0  0  0  0  0  0  0  0  0
   12.7064   -3.5922    1.1115 H   0  0  0  0  0  0  0  0  0  0  0  0
    9.6572   -2.0016    0.2163 H   0  0  0  0  0  0  0  0  0  0  0  0
   10.9514    0.2611    1.7841 H   0  0  0  0  0  0  0  0  0  0  0  0
    9.4629   -0.6808    2.0933 H   0  0  0  0  0  0  0  0  0  0  0  0
    8.5992    1.4585    1.5735 H   0  0  0  0  0  0  0  0  0  0  0  0
    9.8947    1.8097    0.3926 H   0  0  0  0  0  0  0  0  0  0  0  0
    9.0706    0.6915   -2.3619 H   0  0  0  0  0  0  0  0  0  0  0  0
    8.3817   -0.9028   -1.8825 H   0  0  0  0  0  0  0  0  0  0  0  0
   10.7044   -1.3249   -1.9618 H   0  0  0  0  0  0  0  0  0  0  0  0
   11.1352    0.2714   -1.2515 H   0  0  0  0  0  0  0  0  0  0  0  0
    3.9537    1.2174   -1.5759 H   0  0  0  0  0  0  0  0  0  0  0  0
    4.8524   -0.8417    2.1046 H   0  0  0  0  0  0  0  0  0  0  0  0
    2.1324   -0.1434   -1.5056 H   0  0  0  0  0  0  0  0  0  0  0  0
   -4.1610    1.5416    1.1633 H   0  0  0  0  0  0  0  0  0  0  0  0
   -3.4704    0.8734    5.3882 H   0  0  0  0  0  0  0  0  0  0  0  0
   -3.7634   -2.0069   -0.8942 H   0  0  0  0  0  0  0  0  0  0  0  0
   -4.1505   -1.1761    0.6535 H   0  0  0  0  0  0  0  0  0  0  0  0
   -5.7694   -1.2621   -1.9311 H   0  0  0  0  0  0  0  0  0  0  0  0
   -6.2647   -1.6296   -0.2421 H   0  0  0  0  0  0  0  0  0  0  0  0
   -5.9537    1.3663   -2.6407 H   0  0  0  0  0  0  0  0  0  0  0  0
   -5.4121    2.3885   -1.2699 H   0  0  0  0  0  0  0  0  0  0  0  0
   -3.8724    0.4063   -2.9122 H   0  0  0  0  0  0  0  0  0  0  0  0
   -3.3134    1.8711   -2.0355 H   0  0  0  0  0  0  0  0  0  0  0  0
   -7.7101    1.7981   -0.7356 H   0  0  0  0  0  0  0  0  0  0  0  0
   -7.6956   -0.2663   -2.6279 H   0  0  0  0  0  0  0  0  0  0  0  0
   -9.0679    0.7668   -2.1915 H   0  0  0  0  0  0  0  0  0  0  0  0
   -8.4518   -1.9828   -0.9583 H   0  0  0  0  0  0  0  0  0  0  0  0
   -9.7232   -1.6111   -2.1572 H   0  0  0  0  0  0  0  0  0  0  0  0
  -10.3213   -1.7505    0.4320 H   0  0  0  0  0  0  0  0  0  0  0  0
  -11.0924   -0.5068   -0.5975 H   0  0  0  0  0  0  0  0  0  0  0  0
  -10.0116    1.2602    0.4433 H   0  0  0  0  0  0  0  0  0  0  0  0
   -9.9699    0.0960    1.8059 H   0  0  0  0  0  0  0  0  0  0  0  0
   -7.6721   -0.6100    1.1468 H   0  0  0  0  0  0  0  0  0  0  0  0
   -7.7496    1.1400    1.4980 H   0  0  0  0  0  0  0  0  0  0  0  0
  1  2  1  0
  2  3  2  0
  2  4  1  0
  4  5  1  0
  5  6  1  0
  6  7  1  0
  7  8  1  0
  8  9  1  0
  7 10  1  0
 10 11  2  0
 11 12  1  0
 11 13  1  0
 13 14  2  0
 14 15  1  0
 15 16  2  0
 14 17  1  0
 17 18  2  0
 17 19  1  0
 19 20  1  0
 20 21  2  0
 21 22  1  0
 22 23  1  0
 23 24  2  0
 24 25  1  0
 25 26  1  0
 25 27  2  0
 27 28  1  0
 22 29  2  0
 29 30  1  0
 29 31  1  0
 31 32  1  0
 32 33  1  0
 33 34  1  0
 34 35  1  0
 35 36  1  0
 34 37  1  0
 37 38  1  0
 38 39  1  0
 39 40  1  0
 40 41  1  0
 41 42  1  0
  9  4  1  0
 16 10  1  0
 30 20  1  0
 36 31  1  0
 42 37  1  0
 28 23  1  0
  1 43  1  0
  4 44  1  0
  5 45  1  0
  5 46  1  0
  6 47  1  0
  6 48  1  0
  8 49  1  0
  8 50  1  0
  9 51  1  0
  9 52  1  0
 13 53  1  0
 15 54  1  0
 19 55  1  0
 24 56  1  0
 27 57  1  0
 32 58  1  0
 32 59  1  0
 33 60  1  0
 33 61  1  0
 35 62  1  0
 35 63  1  0
 36 64  1  0
 36 65  1  0
 37 66  1  0
 38 67  1  0
 38 68  1  0
 39 69  1  0
 39 70  1  0
 40 71  1  0
 40 72  1  0
 41 73  1  0
 41 74  1  0
 42 75  1  0
 42 76  1  0
M  END
$$$$
