
     RDKit          3D

 58 61  0  0  0  0  0  0  0  0999 V2000
   -8.0649   -2.1964    3.1895 C   0  0  0  0  0  0  0  0  0  0  0  0
   -7.7044   -1.3267    2.0768 N   0  0  0  0  0  0  0  0  0  0  0  0
   -6.3394   -1.1490    1.6711 C   0  0  0  0  0  0  0  0  0  0  0  0
   -5.4271   -1.8074    2.2418 O   0  0  0  0  0  0  0  0  0  0  0  0
   -5.9898   -0.1874    0.5982 C   0  0  0  0  0  0  0  0  0  0  0  0
   -4.9415   -0.4477   -0.3199 C   0  0  0  0  0  0  0  0  0  0  0  0
   -4.2654   -1.7175   -0.3262 N   0  0  0  0  0  0  0  0  0  0  0  0
   -2.8394   -1.8431   -0.4692 C   0  0  0  0  0  0  0  0  0  0  0  0
   -2.0445   -0.7481   -0.3176 N   0  0  0  0  0  0  0  0  0  0  0  0
   -0.6920   -0.8269   -0.4199 C   0  0  0  0  0  0  0  0  0  0  0  0
    0.0973    0.3635   -0.2860 N   0  0  0  0  0  0  0  0  0  0  0  0
    1.5317    0.3680   -0.1786 C   0  0  0  0  0  0  0  0  0  0  0  0
    2.1942   -0.5931    0.6030 C   0  0  0  0  0  0  0  0  0  0  0  0
    3.5836   -0.5709    0.7275 C   0  0  0  0  0  0  0  0  0  0  0  0
    4.3380    0.4229    0.0874 C   0  0  0  0  0  0  0  0  0  0  0  0
    3.6793    1.3934   -0.6827 C   0  0  0  0  0  0  0  0  0  0  0  0
    2.2766    1.3779   -0.8158 C   0  0  0  0  0  0  0  0  0  0  0  0
    1.5939    2.3384   -1.5803 O   0  0  0  0  0  0  0  0  0  0  0  0
    2.2192    3.4120   -2.2759 C   0  0  0  0  0  0  0  0  0  0  0  0
    5.7729    0.4489    0.2114 N   0  0  0  0  0  0  0  0  0  0  0  0
    6.4414    1.6441    0.7355 C   0  0  0  0  0  0  0  0  0  0  0  0
    7.8573    1.7357    0.1589 C   0  0  0  0  0  0  0  0  0  0  0  0
    8.5651    0.5282    0.3703 O   0  0  0  0  0  0  0  0  0  0  0  0
    7.9507   -0.5208   -0.3547 C   0  0  0  0  0  0  0  0  0  0  0  0
    6.5416   -0.7988    0.1780 C   0  0  0  0  0  0  0  0  0  0  0  0
   -0.1083   -2.0240   -0.6941 N   0  0  0  0  0  0  0  0  0  0  0  0
   -0.8530   -3.1479   -0.8468 C   0  0  0  0  0  0  0  0  0  0  0  0
   -2.2428   -3.0884   -0.7335 C   0  0  0  0  0  0  0  0  0  0  0  0
   -3.1847   -4.5579   -0.9520 Cl  0  0  0  0  0  0  0  0  0  0  0  0
   -4.6227    0.5152   -1.2944 C   0  0  0  0  0  0  0  0  0  0  0  0
   -5.3162    1.7245   -1.3520 C   0  0  0  0  0  0  0  0  0  0  0  0
   -6.3426    1.9846   -0.4456 C   0  0  0  0  0  0  0  0  0  0  0  0
   -6.6794    1.0367    0.5224 C   0  0  0  0  0  0  0  0  0  0  0  0
   -7.7255   -3.2333    2.9831 H   0  0  0  0  0  0  0  0  0  0  0  0
   -9.1671   -2.1999    3.3243 H   0  0  0  0  0  0  0  0  0  0  0  0
   -7.5901   -1.8284    4.1234 H   0  0  0  0  0  0  0  0  0  0  0  0
   -8.4705   -0.8523    1.5482 H   0  0  0  0  0  0  0  0  0  0  0  0
   -4.8398   -2.5749   -0.1678 H   0  0  0  0  0  0  0  0  0  0  0  0
   -0.4007    1.2807   -0.3414 H   0  0  0  0  0  0  0  0  0  0  0  0
    1.6341   -1.3477    1.1396 H   0  0  0  0  0  0  0  0  0  0  0  0
    4.0689   -1.3178    1.3425 H   0  0  0  0  0  0  0  0  0  0  0  0
    4.2677    2.1454   -1.1897 H   0  0  0  0  0  0  0  0  0  0  0  0
    2.9185    3.0149   -3.0418 H   0  0  0  0  0  0  0  0  0  0  0  0
    1.4405    4.0155   -2.7856 H   0  0  0  0  0  0  0  0  0  0  0  0
    2.7635    4.0647   -1.5612 H   0  0  0  0  0  0  0  0  0  0  0  0
    6.4966    1.5729    1.8433 H   0  0  0  0  0  0  0  0  0  0  0  0
    5.8826    2.5675    0.4741 H   0  0  0  0  0  0  0  0  0  0  0  0
    8.3988    2.5574    0.6732 H   0  0  0  0  0  0  0  0  0  0  0  0
    7.8201    1.9958   -0.9238 H   0  0  0  0  0  0  0  0  0  0  0  0
    8.5637   -1.4390   -0.2359 H   0  0  0  0  0  0  0  0  0  0  0  0
    7.9162   -0.2896   -1.4440 H   0  0  0  0  0  0  0  0  0  0  0  0
    6.6094   -1.2178    1.2053 H   0  0  0  0  0  0  0  0  0  0  0  0
    6.0452   -1.5430   -0.4826 H   0  0  0  0  0  0  0  0  0  0  0  0
   -0.3619   -4.0881   -1.0606 H   0  0  0  0  0  0  0  0  0  0  0  0
   -3.8514    0.3181   -2.0281 H   0  0  0  0  0  0  0  0  0  0  0  0
   -5.0627    2.4580   -2.1065 H   0  0  0  0  0  0  0  0  0  0  0  0
   -6.8771    2.9248   -0.4905 H   0  0  0  0  0  0  0  0  0  0  0  0
   -7.4640    1.2742    1.2298 H   0  0  0  0  0  0  0  0  0  0  0  0
  1  2  1  0
  2  3  1  0
  3  4  2  0
  3  5  1  0
  5  6  2  0
  6  7  1  0
  7  8  1  0
  8  9  2  0
  9 10  1  0
 10 11  1  0
 11 12  1  0
 12 13  2  0
 13 14  1  0
 14 15  2  0
 15 16  1  0
 16 17  2  0
 17 18  1  0
 18 19  1  0
 15 20  1  0
 20 21  1  0
 21 22  1  0
 22 23  1  0
 23 24  1  0
 24 25  1  0
 10 26  2  0
 26 27  1  0
 27 28  2  0
 28 29  1  0
  6 30  1  0
 30 31  2  0
 31 32  1  0
 32 33  2  0
 33  5  1  0
 28  8  1  0
 17 12  1  0
 25 20  1  0
  1 34  1  0
  1 35  1  0
  1 36  1  0
  2 37  1  0
  7 38  1  0
 11 39  1  0
 13 40  1  0
 14 41  1  0
 16 42  1  0
 19 43  1  0
 19 44  1  0
 19 45  1  0
 21 46  1  0
 21 47  1  0
 22 48  1  0
 22 49  1  0
 24 50  1  0
 24 51  1  0
 25 52  1  0
 25 53  1  0
 27 54  1  0
 30 55  1  0
 31 56  1  0
 32 57  1  0
 33 58  1  0
M  END
$$$$
