
     RDKit          3D

 53 56  0  0  0  0  0  0  0  0999 V2000
   -3.4641    4.5694   -0.6619 N   0  0  0  0  0  0  0  0  0  0  0  0
   -3.7062    3.3330    0.0749 C   0  0  0  0  0  0  0  0  0  0  0  0
   -2.3764    2.6665    0.4380 C   0  0  0  0  0  0  0  0  0  0  0  0
   -2.6068    1.3623    1.2134 C   0  0  0  0  0  0  0  0  0  0  0  0
   -1.3146    0.7574    1.8066 C   0  0  0  0  0  0  0  0  0  0  0  0
   -0.2740    0.3155    0.8273 N   0  0  0  0  0  0  0  0  0  0  0  0
    0.6362    1.4318    0.4631 C   0  0  0  0  0  0  0  0  0  0  0  0
    2.0587    0.9656    0.4986 C   0  0  0  0  0  0  0  0  0  0  0  0
    2.5696    0.2270    1.5203 N   0  0  0  0  0  0  0  0  0  0  0  0
    3.8518    0.0596    1.1506 C   0  0  0  0  0  0  0  0  0  0  0  0
    4.8512   -0.6336    1.8294 C   0  0  0  0  0  0  0  0  0  0  0  0
    6.1316   -0.6740    1.2442 C   0  0  0  0  0  0  0  0  0  0  0  0
    6.3761   -0.0268    0.0105 C   0  0  0  0  0  0  0  0  0  0  0  0
    5.3423    0.6660   -0.6478 C   0  0  0  0  0  0  0  0  0  0  0  0
    4.0901    0.6827   -0.0381 C   0  0  0  0  0  0  0  0  0  0  0  0
    2.9650    1.2681   -0.4640 N   0  0  0  0  0  0  0  0  0  0  0  0
   -0.7824   -0.4782   -0.3405 C   0  0  1  0  0  0  0  0  0  0  0  0
    0.3181   -0.8232   -1.3873 C   0  0  0  0  0  0  0  0  0  0  0  0
   -0.1880   -1.7132   -2.5599 C   0  0  0  0  0  0  0  0  0  0  0  0
   -1.6070   -2.2853   -2.3698 C   0  0  0  0  0  0  0  0  0  0  0  0
   -1.8204   -2.6847   -0.9386 C   0  0  0  0  0  0  0  0  0  0  0  0
   -1.4008   -1.8068    0.0740 C   0  0  0  0  0  0  0  0  0  0  0  0
   -1.4612   -2.2120    1.3725 N   0  0  0  0  0  0  0  0  0  0  0  0
   -1.9825   -3.4157    1.7301 C   0  0  0  0  0  0  0  0  0  0  0  0
   -2.4604   -4.2895    0.7520 C   0  0  0  0  0  0  0  0  0  0  0  0
   -2.3727   -3.9240   -0.5917 C   0  0  0  0  0  0  0  0  0  0  0  0
   -4.3889    5.0314   -0.8201 H   0  0  0  0  0  0  0  0  0  0  0  0
   -3.0926    4.3194   -1.6074 H   0  0  0  0  0  0  0  0  0  0  0  0
   -4.3221    2.6409   -0.5428 H   0  0  0  0  0  0  0  0  0  0  0  0
   -4.2673    3.5699    1.0058 H   0  0  0  0  0  0  0  0  0  0  0  0
   -1.8265    2.4529   -0.5004 H   0  0  0  0  0  0  0  0  0  0  0  0
   -1.7758    3.3692    1.0561 H   0  0  0  0  0  0  0  0  0  0  0  0
   -3.1403    0.6207    0.5828 H   0  0  0  0  0  0  0  0  0  0  0  0
   -3.2839    1.5803    2.0686 H   0  0  0  0  0  0  0  0  0  0  0  0
   -0.8896    1.4759    2.5417 H   0  0  0  0  0  0  0  0  0  0  0  0
   -1.6046   -0.0915    2.4521 H   0  0  0  0  0  0  0  0  0  0  0  0
    0.3886    1.8550   -0.5328 H   0  0  0  0  0  0  0  0  0  0  0  0
    0.5737    2.2843    1.1728 H   0  0  0  0  0  0  0  0  0  0  0  0
    4.6516   -1.1247    2.7730 H   0  0  0  0  0  0  0  0  0  0  0  0
    6.9334   -1.2036    1.7420 H   0  0  0  0  0  0  0  0  0  0  0  0
    7.3638   -0.0640   -0.4301 H   0  0  0  0  0  0  0  0  0  0  0  0
    5.5150    1.1660   -1.5919 H   0  0  0  0  0  0  0  0  0  0  0  0
    2.8198    1.8248   -1.3357 H   0  0  0  0  0  0  0  0  0  0  0  0
   -1.5446    0.1141   -0.8878 H   0  0  0  0  0  0  0  0  0  0  0  0
    1.1497   -1.3510   -0.8696 H   0  0  0  0  0  0  0  0  0  0  0  0
    0.7392    0.0969   -1.8397 H   0  0  0  0  0  0  0  0  0  0  0  0
   -0.1715   -1.1287   -3.5058 H   0  0  0  0  0  0  0  0  0  0  0  0
    0.5208   -2.5598   -2.6938 H   0  0  0  0  0  0  0  0  0  0  0  0
   -2.3586   -1.5118   -2.6388 H   0  0  0  0  0  0  0  0  0  0  0  0
   -1.7494   -3.1500   -3.0540 H   0  0  0  0  0  0  0  0  0  0  0  0
   -2.0240   -3.6947    2.7744 H   0  0  0  0  0  0  0  0  0  0  0  0
   -2.8768   -5.2485    1.0319 H   0  0  0  0  0  0  0  0  0  0  0  0
   -2.7122   -4.6111   -1.3566 H   0  0  0  0  0  0  0  0  0  0  0  0
  1  2  1  0
  2  3  1  0
  3  4  1  0
  4  5  1  0
  5  6  1  0
  6  7  1  0
  7  8  1  0
  8  9  2  0
  9 10  1  0
 10 11  2  0
 11 12  1  0
 12 13  2  0
 13 14  1  0
 14 15  2  0
 15 16  1  0
  6 17  1  0
 17 18  1  0
 18 19  1  0
 19 20  1  0
 20 21  1  0
 21 22  2  0
 22 23  1  0
 23 24  2  0
 24 25  1  0
 25 26  2  0
 16  8  1  0
 22 17  1  0
 15 10  1  0
 26 21  1  0
  1 27  1  0
  1 28  1  0
  2 29  1  0
  2 30  1  0
  3 31  1  0
  3 32  1  0
  4 33  1  0
  4 34  1  0
  5 35  1  0
  5 36  1  0
  7 37  1  0
  7 38  1  0
 11 39  1  0
 12 40  1  0
 13 41  1  0
 14 42  1  0
 16 43  1  0
 17 44  1  6
 18 45  1  0
 18 46  1  0
 19 47  1  0
 19 48  1  0
 20 49  1  0
 20 50  1  0
 24 51  1  0
 25 52  1  0
 26 53  1  0
M  END
$$$$
