
     RDKit          3D

 46 48  0  0  0  0  0  0  0  0999 V2000
   -7.3256    1.9596    0.2141 O   0  0  0  0  0  0  0  0  0  0  0  0
   -6.2064    1.7027    1.0021 C   0  0  0  0  0  0  0  0  0  0  0  0
   -6.0647    2.3229    2.0910 O   0  0  0  0  0  0  0  0  0  0  0  0
   -5.2209    0.7397    0.5827 N   0  0  0  0  0  0  0  0  0  0  0  0
   -4.1232    0.3925    1.4978 C   0  0  0  0  0  0  0  0  0  0  0  0
   -3.1825   -0.6540    0.8893 C   0  0  0  0  0  0  0  0  0  0  0  0
   -2.8025   -0.2528   -0.5498 C   0  0  0  0  0  0  0  0  0  0  0  0
   -1.8152   -1.2604   -1.1800 C   0  0  0  0  0  0  0  0  0  0  0  0
   -0.4805   -1.2697   -0.4769 C   0  0  0  0  0  0  0  0  0  0  0  0
    0.4413   -0.2335   -0.6988 C   0  0  0  0  0  0  0  0  0  0  0  0
    1.6790   -0.2253   -0.0442 C   0  0  0  0  0  0  0  0  0  0  0  0
    2.5606    0.8368   -0.2931 O   0  0  0  0  0  0  0  0  0  0  0  0
    3.9586    0.7544   -0.2532 C   0  0  0  0  0  0  0  0  0  0  0  0
    4.5966   -0.4471   -0.3187 N   0  0  0  0  0  0  0  0  0  0  0  0
    5.9525   -0.5450   -0.3062 C   0  0  0  0  0  0  0  0  0  0  0  0
    6.7456    0.6126   -0.2476 C   0  0  0  0  0  0  0  0  0  0  0  0
    6.1026    1.8576   -0.1632 C   0  0  0  0  0  0  0  0  0  0  0  0
    4.7087    1.9300   -0.1801 C   0  0  0  0  0  0  0  0  0  0  0  0
    8.2483    0.5149   -0.1796 C   0  0  0  0  0  0  0  0  0  0  0  0
    8.8361    1.6370   -0.7375 F   0  0  0  0  0  0  0  0  0  0  0  0
    8.6969   -0.5977   -0.8702 F   0  0  0  0  0  0  0  0  0  0  0  0
    8.6383    0.4121    1.1425 F   0  0  0  0  0  0  0  0  0  0  0  0
    1.9802   -1.2500    0.8713 C   0  0  0  0  0  0  0  0  0  0  0  0
    1.0648   -2.2804    1.0996 C   0  0  0  0  0  0  0  0  0  0  0  0
   -0.1593   -2.2943    0.4274 C   0  0  0  0  0  0  0  0  0  0  0  0
   -4.0583   -0.0820   -1.4509 C   0  0  0  0  0  0  0  0  0  0  0  0
   -5.3852    0.0006   -0.6767 C   0  0  0  0  0  0  0  0  0  0  0  0
   -8.0222    2.6356    0.5041 H   0  0  0  0  0  0  0  0  0  0  0  0
   -3.5372    1.3096    1.7270 H   0  0  0  0  0  0  0  0  0  0  0  0
   -4.5402   -0.0030    2.4493 H   0  0  0  0  0  0  0  0  0  0  0  0
   -3.6779   -1.6500    0.8893 H   0  0  0  0  0  0  0  0  0  0  0  0
   -2.2759   -0.7218    1.5278 H   0  0  0  0  0  0  0  0  0  0  0  0
   -2.2933    0.7369   -0.4963 H   0  0  0  0  0  0  0  0  0  0  0  0
   -2.2638   -2.2786   -1.1753 H   0  0  0  0  0  0  0  0  0  0  0  0
   -1.6454   -0.9906   -2.2459 H   0  0  0  0  0  0  0  0  0  0  0  0
    0.2002    0.5670   -1.3879 H   0  0  0  0  0  0  0  0  0  0  0  0
    6.4085   -1.5258   -0.3415 H   0  0  0  0  0  0  0  0  0  0  0  0
    6.6766    2.7723   -0.0845 H   0  0  0  0  0  0  0  0  0  0  0  0
    4.2145    2.8919   -0.1285 H   0  0  0  0  0  0  0  0  0  0  0  0
    2.9045   -1.2395    1.4326 H   0  0  0  0  0  0  0  0  0  0  0  0
    1.3000   -3.0642    1.8080 H   0  0  0  0  0  0  0  0  0  0  0  0
   -0.8618   -3.0952    0.6223 H   0  0  0  0  0  0  0  0  0  0  0  0
   -4.1467   -0.9206   -2.1767 H   0  0  0  0  0  0  0  0  0  0  0  0
   -3.9385    0.8460   -2.0524 H   0  0  0  0  0  0  0  0  0  0  0  0
   -5.7420   -1.0263   -0.4439 H   0  0  0  0  0  0  0  0  0  0  0  0
   -6.1452    0.4754   -1.3331 H   0  0  0  0  0  0  0  0  0  0  0  0
  1  2  1  0
  2  3  2  0
  2  4  1  0
  4  5  1  0
  5  6  1  0
  6  7  1  0
  7  8  1  0
  8  9  1  0
  9 10  2  0
 10 11  1  0
 11 12  1  0
 12 13  1  0
 13 14  2  0
 14 15  1  0
 15 16  2  0
 16 17  1  0
 17 18  2  0
 16 19  1  0
 19 20  1  0
 19 21  1  0
 19 22  1  0
 11 23  2  0
 23 24  1  0
 24 25  2  0
  7 26  1  0
 26 27  1  0
 27  4  1  0
 25  9  1  0
 18 13  1  0
  1 28  1  0
  5 29  1  0
  5 30  1  0
  6 31  1  0
  6 32  1  0
  7 33  1  0
  8 34  1  0
  8 35  1  0
 10 36  1  0
 15 37  1  0
 17 38  1  0
 18 39  1  0
 23 40  1  0
 24 41  1  0
 25 42  1  0
 26 43  1  0
 26 44  1  0
 27 45  1  0
 27 46  1  0
M  END
$$$$
