
     RDKit          3D

 50 53  0  0  0  0  0  0  0  0999 V2000
   -1.9728    2.0794    0.1343 C   0  0  2  0  0  0  0  0  0  0  0  0
   -3.2518    2.8601    0.4491 C   0  0  0  0  0  0  0  0  0  0  0  0
   -3.3452    3.9530   -0.6163 C   0  0  0  0  0  0  0  0  0  0  0  0
   -3.8354    5.1300   -0.0758 F   0  0  0  0  0  0  0  0  0  0  0  0
   -4.1782    3.5387   -1.6429 F   0  0  0  0  0  0  0  0  0  0  0  0
   -1.9251    4.1430   -1.1415 C   0  0  0  0  0  0  0  0  0  0  0  0
   -1.1891    2.9594   -0.7277 N   0  0  0  0  0  0  0  0  0  0  0  0
    0.1995    2.7566   -1.0578 C   0  0  0  0  0  0  0  0  0  0  0  0
    0.8029    3.6124   -1.7619 O   0  0  0  0  0  0  0  0  0  0  0  0
    0.9322    1.5397   -0.5564 C   0  0  0  0  0  0  0  0  0  0  0  0
    2.3769    1.4250   -1.0530 C   0  0  0  0  0  0  0  0  0  0  0  0
    2.9543    0.1651   -0.5876 N   0  0  0  0  0  0  0  0  0  0  0  0
    3.3327   -0.1070    0.7665 C   0  0  0  0  0  0  0  0  0  0  0  0
    3.6284    0.7812    1.6093 O   0  0  0  0  0  0  0  0  0  0  0  0
    3.2678   -1.5383    1.0356 C   0  0  0  0  0  0  0  0  0  0  0  0
    2.8403   -2.1588   -0.1167 C   0  0  0  0  0  0  0  0  0  0  0  0
    2.6265   -3.5350   -0.1689 C   0  0  0  0  0  0  0  0  0  0  0  0
    2.8674   -4.2846    0.9963 C   0  0  0  0  0  0  0  0  0  0  0  0
    3.3051   -3.6484    2.1783 C   0  0  0  0  0  0  0  0  0  0  0  0
    3.5055   -2.2565    2.2061 C   0  0  0  0  0  0  0  0  0  0  0  0
    2.6297   -1.1241   -1.1211 C   0  0  0  0  0  0  0  0  0  0  0  0
    2.1738   -1.3146   -2.2798 O   0  0  0  0  0  0  0  0  0  0  0  0
   -2.2825    0.7834   -0.5842 C   0  0  0  0  0  0  0  0  0  0  0  0
   -2.8493    0.8326   -1.7103 O   0  0  0  0  0  0  0  0  0  0  0  0
   -1.9164   -0.4974   -0.0351 N   0  0  0  0  0  0  0  0  0  0  0  0
   -1.9793   -1.7239   -0.8106 C   0  0  0  0  0  0  0  0  0  0  0  0
   -1.3071   -2.7878    0.0457 C   0  0  0  0  0  0  0  0  0  0  0  0
   -1.2727   -2.2227    1.4624 C   0  0  0  0  0  0  0  0  0  0  0  0
   -1.4129   -0.7139    1.3120 C   0  0  0  0  0  0  0  0  0  0  0  0
   -1.4216    1.9022    1.0805 H   0  0  0  0  0  0  0  0  0  0  0  0
   -3.1505    3.3329    1.4514 H   0  0  0  0  0  0  0  0  0  0  0  0
   -4.1609    2.2184    0.4612 H   0  0  0  0  0  0  0  0  0  0  0  0
   -1.9187    4.2340   -2.2495 H   0  0  0  0  0  0  0  0  0  0  0  0
   -1.4569    5.0451   -0.6905 H   0  0  0  0  0  0  0  0  0  0  0  0
    0.9378    1.5644    0.5535 H   0  0  0  0  0  0  0  0  0  0  0  0
    0.3847    0.6369   -0.8928 H   0  0  0  0  0  0  0  0  0  0  0  0
    2.4019    1.4520   -2.1642 H   0  0  0  0  0  0  0  0  0  0  0  0
    2.9802    2.2754   -0.6678 H   0  0  0  0  0  0  0  0  0  0  0  0
    2.2756   -4.0118   -1.0748 H   0  0  0  0  0  0  0  0  0  0  0  0
    2.7093   -5.3551    0.9885 H   0  0  0  0  0  0  0  0  0  0  0  0
    3.4810   -4.2344    3.0709 H   0  0  0  0  0  0  0  0  0  0  0  0
    3.8272   -1.7586    3.1114 H   0  0  0  0  0  0  0  0  0  0  0  0
   -3.0414   -1.9891   -1.0029 H   0  0  0  0  0  0  0  0  0  0  0  0
   -1.4377   -1.6021   -1.7742 H   0  0  0  0  0  0  0  0  0  0  0  0
   -1.8614   -3.7504    0.0066 H   0  0  0  0  0  0  0  0  0  0  0  0
   -0.2673   -2.9504   -0.3128 H   0  0  0  0  0  0  0  0  0  0  0  0
   -2.1341   -2.6220    2.0418 H   0  0  0  0  0  0  0  0  0  0  0  0
   -0.3263   -2.4925    1.9805 H   0  0  0  0  0  0  0  0  0  0  0  0
   -2.1262   -0.3098    2.0626 H   0  0  0  0  0  0  0  0  0  0  0  0
   -0.4200   -0.2316    1.4288 H   0  0  0  0  0  0  0  0  0  0  0  0
  1  2  1  0
  2  3  1  0
  3  4  1  0
  3  5  1  0
  3  6  1  0
  6  7  1  0
  7  8  1  0
  8  9  2  0
  8 10  1  0
 10 11  1  0
 11 12  1  0
 12 13  1  0
 13 14  2  0
 13 15  1  0
 15 16  2  0
 16 17  1  0
 17 18  2  0
 18 19  1  0
 19 20  2  0
 16 21  1  0
 21 22  2  0
  1 23  1  0
 23 24  2  0
 23 25  1  0
 25 26  1  0
 26 27  1  0
 27 28  1  0
 28 29  1  0
  7  1  1  0
 21 12  1  0
 29 25  1  0
 20 15  1  0
  1 30  1  1
  2 31  1  0
  2 32  1  0
  6 33  1  0
  6 34  1  0
 10 35  1  0
 10 36  1  0
 11 37  1  0
 11 38  1  0
 17 39  1  0
 18 40  1  0
 19 41  1  0
 20 42  1  0
 26 43  1  0
 26 44  1  0
 27 45  1  0
 27 46  1  0
 28 47  1  0
 28 48  1  0
 29 49  1  0
 29 50  1  0
M  END
$$$$
