
     RDKit          3D

 30 31  0  0  0  0  0  0  0  0999 V2000
    3.2686   -1.6864   -0.8975 O   0  0  0  0  0  0  0  0  0  0  0  0
    2.1079   -2.2106   -0.3373 C   0  0  0  0  0  0  0  0  0  0  0  0
    1.2907   -2.8431   -1.0584 O   0  0  0  0  0  0  0  0  0  0  0  0
    1.8251   -2.0047    1.1176 C   0  0  0  0  0  0  0  0  0  0  0  0
    1.5327   -0.5492    1.3985 C   0  0  0  0  0  0  0  0  0  0  0  0
    2.5060    0.2240    2.0577 C   0  0  0  0  0  0  0  0  0  0  0  0
    2.2940    1.5825    2.2969 C   0  0  0  0  0  0  0  0  0  0  0  0
    1.1123    2.1900    1.8771 C   0  0  0  0  0  0  0  0  0  0  0  0
    0.1389    1.4428    1.2132 C   0  0  0  0  0  0  0  0  0  0  0  0
    0.3354    0.0718    0.9589 C   0  0  0  0  0  0  0  0  0  0  0  0
   -0.6794   -0.6833    0.2687 N   0  0  0  0  0  0  0  0  0  0  0  0
   -1.5919   -0.0954   -0.6728 C   0  0  0  0  0  0  0  0  0  0  0  0
   -1.1164    0.5972   -1.8077 C   0  0  0  0  0  0  0  0  0  0  0  0
    0.6033    0.7215   -2.1606 Cl  0  0  0  0  0  0  0  0  0  0  0  0
   -2.0234    1.1608   -2.7123 C   0  0  0  0  0  0  0  0  0  0  0  0
   -3.3976    1.0326   -2.5044 C   0  0  0  0  0  0  0  0  0  0  0  0
   -3.8750    0.3330   -1.3951 C   0  0  0  0  0  0  0  0  0  0  0  0
   -2.9804   -0.2361   -0.4823 C   0  0  0  0  0  0  0  0  0  0  0  0
   -3.6230   -1.0890    0.9151 Cl  0  0  0  0  0  0  0  0  0  0  0  0
    3.4697   -1.8068   -1.8830 H   0  0  0  0  0  0  0  0  0  0  0  0
    2.7091   -2.3497    1.6962 H   0  0  0  0  0  0  0  0  0  0  0  0
    0.9766   -2.6402    1.4474 H   0  0  0  0  0  0  0  0  0  0  0  0
    3.4363   -0.2240    2.3844 H   0  0  0  0  0  0  0  0  0  0  0  0
    3.0495    2.1659    2.8072 H   0  0  0  0  0  0  0  0  0  0  0  0
    0.9496    3.2433    2.0662 H   0  0  0  0  0  0  0  0  0  0  0  0
   -0.7742    1.9347    0.9037 H   0  0  0  0  0  0  0  0  0  0  0  0
   -0.8446   -1.6773    0.5399 H   0  0  0  0  0  0  0  0  0  0  0  0
   -1.6632    1.6907   -3.5850 H   0  0  0  0  0  0  0  0  0  0  0  0
   -4.0939    1.4698   -3.2083 H   0  0  0  0  0  0  0  0  0  0  0  0
   -4.9426    0.2353   -1.2440 H   0  0  0  0  0  0  0  0  0  0  0  0
  1  2  1  0
  2  3  2  0
  2  4  1  0
  4  5  1  0
  5  6  2  0
  6  7  1  0
  7  8  2  0
  8  9  1  0
  9 10  2  0
 10 11  1  0
 11 12  1  0
 12 13  2  0
 13 14  1  0
 13 15  1  0
 15 16  2  0
 16 17  1  0
 17 18  2  0
 18 19  1  0
 10  5  1  0
 18 12  1  0
  1 20  1  0
  4 21  1  0
  4 22  1  0
  6 23  1  0
  7 24  1  0
  8 25  1  0
  9 26  1  0
 11 27  1  0
 15 28  1  0
 16 29  1  0
 17 30  1  0
M  END
$$$$
