
     RDKit          3D

 35 36  0  0  0  0  0  0  0  0999 V2000
   -3.6329   -1.4380    2.2379 O   0  0  0  0  0  0  0  0  0  0  0  0
   -3.2379   -0.1146    2.4778 C   0  0  0  0  0  0  0  0  0  0  0  0
   -2.3071    0.3758    1.3622 C   0  0  1  0  0  0  0  0  0  0  0  0
   -1.2023   -0.5054    1.2660 O   0  0  0  0  0  0  0  0  0  0  0  0
   -0.1657    0.0789    0.4939 C   0  0  1  0  0  0  0  0  0  0  0  0
    0.8780   -0.8901    0.3710 O   0  0  0  0  0  0  0  0  0  0  0  0
    2.1888   -0.6349   -0.0658 C   0  0  0  0  0  0  0  0  0  0  0  0
    3.0664   -1.7196   -0.1875 C   0  0  0  0  0  0  0  0  0  0  0  0
    4.3818   -1.5254   -0.6191 C   0  0  0  0  0  0  0  0  0  0  0  0
    4.8354   -0.2381   -0.9335 C   0  0  0  0  0  0  0  0  0  0  0  0
    6.1436   -0.0309   -1.3651 O   0  0  0  0  0  0  0  0  0  0  0  0
    3.9671    0.8509   -0.8126 C   0  0  0  0  0  0  0  0  0  0  0  0
    2.6509    0.6587   -0.3807 C   0  0  0  0  0  0  0  0  0  0  0  0
   -0.6663    0.5051   -0.9247 C   0  0  2  0  0  0  0  0  0  0  0  0
   -0.5154    1.8896   -1.1264 O   0  0  0  0  0  0  0  0  0  0  0  0
   -2.1300    0.0735   -1.1746 C   0  0  1  0  0  0  0  0  0  0  0  0
   -2.1842   -1.3223   -1.3382 O   0  0  0  0  0  0  0  0  0  0  0  0
   -3.0511    0.4753   -0.0012 C   0  0  2  0  0  0  0  0  0  0  0  0
   -3.5147    1.7869   -0.2001 O   0  0  0  0  0  0  0  0  0  0  0  0
   -4.2332   -1.6860    2.9882 H   0  0  0  0  0  0  0  0  0  0  0  0
   -2.6968   -0.0602    3.4490 H   0  0  0  0  0  0  0  0  0  0  0  0
   -4.1328    0.5446    2.5389 H   0  0  0  0  0  0  0  0  0  0  0  0
   -1.9620    1.3914    1.6725 H   0  0  0  0  0  0  0  0  0  0  0  0
    0.2398    0.9519    1.0551 H   0  0  0  0  0  0  0  0  0  0  0  0
    2.7255   -2.7189    0.0523 H   0  0  0  0  0  0  0  0  0  0  0  0
    5.0465   -2.3752   -0.7088 H   0  0  0  0  0  0  0  0  0  0  0  0
    6.7968   -0.7995   -1.4627 H   0  0  0  0  0  0  0  0  0  0  0  0
    4.3130    1.8482   -1.0531 H   0  0  0  0  0  0  0  0  0  0  0  0
    2.0079    1.5220   -0.2955 H   0  0  0  0  0  0  0  0  0  0  0  0
   -0.0397    0.0064   -1.6965 H   0  0  0  0  0  0  0  0  0  0  0  0
   -0.9931    2.3615   -0.3968 H   0  0  0  0  0  0  0  0  0  0  0  0
   -2.5031    0.5611   -2.1068 H   0  0  0  0  0  0  0  0  0  0  0  0
   -1.8558   -1.5201   -2.2543 H   0  0  0  0  0  0  0  0  0  0  0  0
   -3.9274   -0.2157   -0.0215 H   0  0  0  0  0  0  0  0  0  0  0  0
   -4.2901    1.9131    0.4068 H   0  0  0  0  0  0  0  0  0  0  0  0
  1  2  1  0
  2  3  1  0
  3  4  1  0
  4  5  1  0
  5  6  1  0
  6  7  1  0
  7  8  2  0
  8  9  1  0
  9 10  2  0
 10 11  1  0
 10 12  1  0
 12 13  2  0
  5 14  1  0
 14 15  1  0
 14 16  1  0
 16 17  1  0
 16 18  1  0
 18 19  1  0
 18  3  1  0
 13  7  1  0
  1 20  1  0
  2 21  1  0
  2 22  1  0
  3 23  1  1
  5 24  1  1
  8 25  1  0
  9 26  1  0
 11 27  1  0
 12 28  1  0
 13 29  1  0
 14 30  1  6
 15 31  1  0
 16 32  1  6
 17 33  1  0
 18 34  1  1
 19 35  1  0
M  END
$$$$
