
     RDKit          3D

 15 14  0  0  0  0  0  0  0  0999 V2000
    1.6146    0.2166   -1.5741 O   0  0  0  0  0  0  0  0  0  0  0  0
    0.6023   -0.2727   -0.7309 C   0  0  2  0  0  0  0  0  0  0  0  0
   -0.4698    0.8059   -0.4896 C   0  0  0  0  0  0  0  0  0  0  0  0
   -1.6587    0.2471    0.2313 C   0  0  0  0  0  0  0  0  0  0  0  0
   -2.6313   -0.4526   -0.4758 O   0  0  0  0  0  0  0  0  0  0  0  0
   -1.7610    0.3801    1.4802 O   0  0  0  0  0  0  0  0  0  0  0  0
    1.1987   -0.7637    0.5614 C   0  0  0  0  0  0  0  0  0  0  0  0
    1.8929    0.1147    1.3886 O   0  0  0  0  0  0  0  0  0  0  0  0
    1.0666   -1.9707    0.8987 O   0  0  0  0  0  0  0  0  0  0  0  0
    2.0118    1.0168   -1.1393 H   0  0  0  0  0  0  0  0  0  0  0  0
    0.1226   -1.1301   -1.2536 H   0  0  0  0  0  0  0  0  0  0  0  0
   -0.0421    1.6543    0.0889 H   0  0  0  0  0  0  0  0  0  0  0  0
   -0.8089    1.2067   -1.4691 H   0  0  0  0  0  0  0  0  0  0  0  0
   -3.4336   -0.8494   -0.0014 H   0  0  0  0  0  0  0  0  0  0  0  0
    2.2959   -0.2030    2.2620 H   0  0  0  0  0  0  0  0  0  0  0  0
  1  2  1  0
  2  3  1  0
  3  4  1  0
  4  5  1  0
  4  6  2  0
  2  7  1  0
  7  8  1  0
  7  9  2  0
  1 10  1  0
  2 11  1  6
  3 12  1  0
  3 13  1  0
  5 14  1  0
  8 15  1  0
M  END
$$$$
