
     RDKit          3D

 31 28  0  0  0  0  0  0  0  0999 V2000
    0.0000    0.0000    0.0000 Ca  0  0  0  0  0 15  0  0  0  0  0  0
   -2.0410    0.9597    0.4846 C   0  0  0  0  0  0  0  0  0  0  0  0
   -0.8425    0.4351   -0.2466 C   0  0  0  0  0  0  0  0  0  0  0  0
   -0.4291    1.0259   -1.2330 O   0  0  0  0  0  0  0  0  0  0  0  0
   -0.1698   -0.8353    0.2043 C   0  0  0  0  0  0  0  0  0  0  0  0
    1.2017   -0.5651    0.8351 C   0  0  0  0  0  0  0  0  0  0  0  0
    2.2105   -0.1344   -0.1855 C   0  0  0  0  0  0  0  0  0  0  0  0
    2.7568   -1.0661   -1.0591 O   0  0  0  0  0  1  0  0  0  0  0  0
    2.5487    1.0753   -0.2725 O   0  0  0  0  0  0  0  0  0  0  0  0
    1.7021    1.1062    0.3112 C   0  0  0  0  0  0  0  0  0  0  0  0
    0.8704   -0.0445    0.7949 C   0  0  0  0  0  0  0  0  0  0  0  0
    0.7173   -0.2045    1.9964 O   0  0  0  0  0  0  0  0  0  0  0  0
    0.2290   -1.0093   -0.1705 C   0  0  0  0  0  0  0  0  0  0  0  0
   -1.3000   -0.9027   -0.1484 C   0  0  0  0  0  0  0  0  0  0  0  0
   -1.7650    0.4214   -0.6731 C   0  0  0  0  0  0  0  0  0  0  0  0
   -2.0399    1.4610    0.2063 O   0  0  0  0  0  1  0  0  0  0  0  0
   -1.8692    0.6098   -1.9137 O   0  0  0  0  0  0  0  0  0  0  0  0
   -2.3730    1.9274    0.0514 H   0  0  0  0  0  0  0  0  0  0  0  0
   -2.8727    0.2283    0.4094 H   0  0  0  0  0  0  0  0  0  0  0  0
   -1.7862    1.1155    1.5538 H   0  0  0  0  0  0  0  0  0  0  0  0
   -0.8072   -1.3398    0.9629 H   0  0  0  0  0  0  0  0  0  0  0  0
   -0.0707   -1.5321   -0.6565 H   0  0  0  0  0  0  0  0  0  0  0  0
    1.1082    0.2047    1.6326 H   0  0  0  0  0  0  0  0  0  0  0  0
    1.5663   -1.4990    1.3141 H   0  0  0  0  0  0  0  0  0  0  0  0
    1.7431    1.1385   -0.7976 H   0  0  0  0  0  0  0  0  0  0  0  0
    1.2632    2.0586    0.6755 H   0  0  0  0  0  0  0  0  0  0  0  0
    2.7357    1.0086    0.7039 H   0  0  0  0  0  0  0  0  0  0  0  0
    0.5969   -0.8385   -1.2057 H   0  0  0  0  0  0  0  0  0  0  0  0
    0.5234   -2.0425    0.1139 H   0  0  0  0  0  0  0  0  0  0  0  0
   -1.6794   -1.0501    0.8861 H   0  0  0  0  0  0  0  0  0  0  0  0
   -1.7278   -1.7119   -0.7790 H   0  0  0  0  0  0  0  0  0  0  0  0
  2  3  1  0
  3  4  2  0
  3  5  1  0
  5  6  1  0
  6  7  1  0
  7  8  1  0
  7  9  2  0
 10 11  1  0
 11 12  2  0
 11 13  1  0
 13 14  1  0
 14 15  1  0
 15 16  1  0
 15 17  2  0
  2 18  1  0
  2 19  1  0
  2 20  1  0
  5 21  1  0
  5 22  1  0
  6 23  1  0
  6 24  1  0
 10 25  1  0
 10 26  1  0
 10 27  1  0
 13 28  1  0
 13 29  1  0
 14 30  1  0
 14 31  1  0
M  CHG  3   1   2   8  -1  16  -1
M  END
$$$$
