
     RDKit          3D

 38 41  0  0  0  0  0  0  0  0999 V2000
    1.4881   -1.6448   -2.1438 F   0  0  0  0  0  0  0  0  0  0  0  0
    2.7289   -1.5821   -1.5967 C   0  0  0  0  0  0  0  0  0  0  0  0
    3.6805   -2.5343   -1.9774 C   0  0  0  0  0  0  0  0  0  0  0  0
    4.9727   -2.4871   -1.4516 C   0  0  0  0  0  0  0  0  0  0  0  0
    5.3190   -1.4881   -0.5407 C   0  0  0  0  0  0  0  0  0  0  0  0
    4.3752   -0.5319   -0.1550 C   0  0  0  0  0  0  0  0  0  0  0  0
    3.0686   -0.5624   -0.6821 C   0  0  0  0  0  0  0  0  0  0  0  0
    2.0598    0.4440   -0.2643 C   0  0  0  0  0  0  0  0  0  0  0  0
    2.4250    1.7690    0.0564 C   0  0  0  0  0  0  0  0  0  0  0  0
    1.4392    2.6208    0.4298 N   0  0  0  0  0  0  0  0  0  0  0  0
    1.4983    3.9124    0.7789 C   0  0  0  0  0  0  0  0  0  0  0  0
    0.2037    4.3137    1.0643 C   0  0  0  0  0  0  0  0  0  0  0  0
   -0.6558    3.2796    0.8923 N   0  0  0  0  0  0  0  0  0  0  0  0
    0.1490    2.2688    0.5045 C   0  0  0  0  0  0  0  0  0  0  0  0
   -0.2389    0.9669    0.1873 C   0  0  0  0  0  0  0  0  0  0  0  0
   -1.6119    0.5566    0.2498 N   0  0  0  0  0  0  0  0  0  0  0  0
   -2.0135   -0.8074   -0.0919 C   0  0  0  0  0  0  0  0  0  0  0  0
   -3.5017   -0.9737    0.0512 C   0  0  0  0  0  0  0  0  0  0  0  0
   -4.0630   -1.3470    1.2807 C   0  0  0  0  0  0  0  0  0  0  0  0
   -5.4486   -1.4609    1.4090 C   0  0  0  0  0  0  0  0  0  0  0  0
   -6.2622   -1.1882    0.3076 C   0  0  0  0  0  0  0  0  0  0  0  0
   -5.7051   -0.8106   -0.8737 N   0  0  0  0  0  0  0  0  0  0  0  0
   -4.3584   -0.6937   -1.0241 C   0  0  0  0  0  0  0  0  0  0  0  0
    0.7380    0.0895   -0.1903 N   0  0  0  0  0  0  0  0  0  0  0  0
    3.4163   -3.3099   -2.6848 H   0  0  0  0  0  0  0  0  0  0  0  0
    5.7053   -3.2265   -1.7484 H   0  0  0  0  0  0  0  0  0  0  0  0
    6.3190   -1.4576   -0.1275 H   0  0  0  0  0  0  0  0  0  0  0  0
    4.6643    0.2151    0.5727 H   0  0  0  0  0  0  0  0  0  0  0  0
    3.4492    2.1140   -0.0098 H   0  0  0  0  0  0  0  0  0  0  0  0
    2.3979    4.5128    0.8232 H   0  0  0  0  0  0  0  0  0  0  0  0
   -0.0960    5.3043    1.3785 H   0  0  0  0  0  0  0  0  0  0  0  0
   -2.3364    1.2513    0.5443 H   0  0  0  0  0  0  0  0  0  0  0  0
   -1.7072   -1.0323   -1.1369 H   0  0  0  0  0  0  0  0  0  0  0  0
   -1.4879   -1.5255    0.5748 H   0  0  0  0  0  0  0  0  0  0  0  0
   -3.4298   -1.5478    2.1360 H   0  0  0  0  0  0  0  0  0  0  0  0
   -5.8879   -1.7540    2.3538 H   0  0  0  0  0  0  0  0  0  0  0  0
   -7.3374   -1.2715    0.3932 H   0  0  0  0  0  0  0  0  0  0  0  0
   -3.9564   -0.3818   -1.9795 H   0  0  0  0  0  0  0  0  0  0  0  0
  1  2  1  0
  2  3  2  0
  3  4  1  0
  4  5  2  0
  5  6  1  0
  6  7  2  0
  7  8  1  0
  8  9  2  0
  9 10  1  0
 10 11  1  0
 11 12  2  0
 12 13  1  0
 13 14  2  0
 14 15  1  0
 15 16  1  0
 16 17  1  0
 17 18  1  0
 18 19  2  0
 19 20  1  0
 20 21  2  0
 21 22  1  0
 22 23  2  0
 15 24  2  0
  7  2  1  0
 24  8  1  0
 14 10  1  0
 23 18  1  0
  3 25  1  0
  4 26  1  0
  5 27  1  0
  6 28  1  0
  9 29  1  0
 11 30  1  0
 12 31  1  0
 16 32  1  0
 17 33  1  0
 17 34  1  0
 19 35  1  0
 20 36  1  0
 21 37  1  0
 23 38  1  0
M  END
$$$$
