
     RDKit          3D

 71 74  0  0  0  0  0  0  0  0999 V2000
    5.6547    1.5257    1.8958 C   0  0  0  0  0  0  0  0  0  0  0  0
    6.7682    0.8208    1.1705 C   0  0  0  0  0  0  0  0  0  0  0  0
    8.0611    0.8219    1.7168 C   0  0  0  0  0  0  0  0  0  0  0  0
    9.0969    0.1369    1.0826 C   0  0  0  0  0  0  0  0  0  0  0  0
    8.8579   -0.5528   -0.1054 C   0  0  0  0  0  0  0  0  0  0  0  0
    7.5766   -0.5625   -0.6776 C   0  0  0  0  0  0  0  0  0  0  0  0
    7.3536   -1.3101   -1.9647 C   0  0  0  0  0  0  0  0  0  0  0  0
    6.5155    0.1034   -0.0199 C   0  0  0  0  0  0  0  0  0  0  0  0
    5.1896    0.0755   -0.5685 N   0  0  0  0  0  0  0  0  0  0  0  0
    4.3912   -1.1159   -0.5685 C   0  0  0  0  0  0  0  0  0  0  0  0
    4.8211   -2.1659   -0.0176 O   0  0  0  0  0  0  0  0  0  0  0  0
    3.0343   -1.1241   -1.2267 C   0  0  0  0  0  0  0  0  0  0  0  0
    1.9313   -0.7258   -0.3256 N   0  0  0  0  0  0  0  0  0  0  0  0
    1.6748   -1.7085    0.7475 C   0  0  0  0  0  0  0  0  0  0  0  0
    0.7122   -1.1481    1.8178 C   0  0  0  0  0  0  0  0  0  0  0  0
   -0.1049   -0.0300    1.3045 N   0  0  0  0  0  0  0  0  0  0  0  0
   -1.0835   -0.4679    0.2829 C   0  0  0  0  0  0  0  0  0  0  0  0
   -2.3709    0.3539    0.4066 C   0  0  0  0  0  0  0  0  0  0  0  0
   -3.4161   -0.0925   -0.6280 C   0  0  0  0  0  0  0  0  0  0  0  0
   -4.7142    0.7454   -0.5363 C   0  0  0  0  0  0  0  0  0  0  0  0
   -5.6442    0.5464   -1.7236 C   0  0  0  0  0  0  0  0  0  0  0  0
   -6.3969    1.6392   -2.1939 C   0  0  0  0  0  0  0  0  0  0  0  0
   -7.2907    1.4834   -3.2572 C   0  0  0  0  0  0  0  0  0  0  0  0
   -7.4552    0.2332   -3.8567 C   0  0  0  0  0  0  0  0  0  0  0  0
   -8.3243    0.0837   -4.8866 F   0  0  0  0  0  0  0  0  0  0  0  0
   -6.7299   -0.8647   -3.3894 C   0  0  0  0  0  0  0  0  0  0  0  0
   -5.8345   -0.7148   -2.3261 C   0  0  0  0  0  0  0  0  0  0  0  0
   -5.4619    0.5029    0.7630 C   0  0  0  0  0  0  0  0  0  0  0  0
   -5.6667    1.5642    1.6640 C   0  0  0  0  0  0  0  0  0  0  0  0
   -6.3533    1.3535    2.8634 C   0  0  0  0  0  0  0  0  0  0  0  0
   -6.8445    0.0839    3.1765 C   0  0  0  0  0  0  0  0  0  0  0  0
   -7.5101   -0.1180    4.3403 F   0  0  0  0  0  0  0  0  0  0  0  0
   -6.6502   -0.9775    2.2894 C   0  0  0  0  0  0  0  0  0  0  0  0
   -5.9642   -0.7722    1.0888 C   0  0  0  0  0  0  0  0  0  0  0  0
    0.7428    1.0974    0.8412 C   0  0  0  0  0  0  0  0  0  0  0  0
    2.0719    0.6387    0.2057 C   0  0  0  0  0  0  0  0  0  0  0  0
    5.1006    2.1876    1.1979 H   0  0  0  0  0  0  0  0  0  0  0  0
    6.0423    2.1559    2.7243 H   0  0  0  0  0  0  0  0  0  0  0  0
    4.9582    0.7741    2.3225 H   0  0  0  0  0  0  0  0  0  0  0  0
    8.2685    1.3481    2.6404 H   0  0  0  0  0  0  0  0  0  0  0  0
   10.0897    0.1405    1.5140 H   0  0  0  0  0  0  0  0  0  0  0  0
    9.6770   -1.0764   -0.5832 H   0  0  0  0  0  0  0  0  0  0  0  0
    6.9668   -2.3262   -1.7435 H   0  0  0  0  0  0  0  0  0  0  0  0
    8.3005   -1.4078   -2.5374 H   0  0  0  0  0  0  0  0  0  0  0  0
    6.6279   -0.7725   -2.6107 H   0  0  0  0  0  0  0  0  0  0  0  0
    4.7775    0.9694   -0.9168 H   0  0  0  0  0  0  0  0  0  0  0  0
    2.8312   -2.1398   -1.6313 H   0  0  0  0  0  0  0  0  0  0  0  0
    3.0528   -0.4449   -2.1063 H   0  0  0  0  0  0  0  0  0  0  0  0
    2.6157   -2.0147    1.2523 H   0  0  0  0  0  0  0  0  0  0  0  0
    1.2185   -2.6158    0.2957 H   0  0  0  0  0  0  0  0  0  0  0  0
    1.3068   -0.7835    2.6849 H   0  0  0  0  0  0  0  0  0  0  0  0
    0.0606   -1.9586    2.2122 H   0  0  0  0  0  0  0  0  0  0  0  0
   -1.3521   -1.5395    0.4238 H   0  0  0  0  0  0  0  0  0  0  0  0
   -0.6673   -0.3670   -0.7449 H   0  0  0  0  0  0  0  0  0  0  0  0
   -2.1425    1.4308    0.2571 H   0  0  0  0  0  0  0  0  0  0  0  0
   -2.7801    0.2236    1.4322 H   0  0  0  0  0  0  0  0  0  0  0  0
   -3.6323   -1.1711   -0.4750 H   0  0  0  0  0  0  0  0  0  0  0  0
   -2.9823    0.0288   -1.6454 H   0  0  0  0  0  0  0  0  0  0  0  0
   -4.3837    1.8090   -0.5672 H   0  0  0  0  0  0  0  0  0  0  0  0
   -6.2938    2.6146   -1.7343 H   0  0  0  0  0  0  0  0  0  0  0  0
   -7.8593    2.3332   -3.6127 H   0  0  0  0  0  0  0  0  0  0  0  0
   -6.8640   -1.8360   -3.8481 H   0  0  0  0  0  0  0  0  0  0  0  0
   -5.2983   -1.5871   -1.9808 H   0  0  0  0  0  0  0  0  0  0  0  0
   -5.2943    2.5562    1.4409 H   0  0  0  0  0  0  0  0  0  0  0  0
   -6.5042    2.1765    3.5501 H   0  0  0  0  0  0  0  0  0  0  0  0
   -7.0314   -1.9614    2.5310 H   0  0  0  0  0  0  0  0  0  0  0  0
   -5.8266   -1.6091    0.4181 H   0  0  0  0  0  0  0  0  0  0  0  0
    0.9704    1.7497    1.7115 H   0  0  0  0  0  0  0  0  0  0  0  0
    0.1927    1.7370    0.1159 H   0  0  0  0  0  0  0  0  0  0  0  0
    2.8756    0.6695    0.9737 H   0  0  0  0  0  0  0  0  0  0  0  0
    2.3416    1.3480   -0.6076 H   0  0  0  0  0  0  0  0  0  0  0  0
  1  2  1  0
  2  3  2  0
  3  4  1  0
  4  5  2  0
  5  6  1  0
  6  7  1  0
  6  8  2  0
  8  9  1  0
  9 10  1  0
 10 11  2  0
 10 12  1  0
 12 13  1  0
 13 14  1  0
 14 15  1  0
 15 16  1  0
 16 17  1  0
 17 18  1  0
 18 19  1  0
 19 20  1  0
 20 21  1  0
 21 22  2  0
 22 23  1  0
 23 24  2  0
 24 25  1  0
 24 26  1  0
 26 27  2  0
 20 28  1  0
 28 29  2  0
 29 30  1  0
 30 31  2  0
 31 32  1  0
 31 33  1  0
 33 34  2  0
 16 35  1  0
 35 36  1  0
  8  2  1  0
 36 13  1  0
 27 21  1  0
 34 28  1  0
  1 37  1  0
  1 38  1  0
  1 39  1  0
  3 40  1  0
  4 41  1  0
  5 42  1  0
  7 43  1  0
  7 44  1  0
  7 45  1  0
  9 46  1  0
 12 47  1  0
 12 48  1  0
 14 49  1  0
 14 50  1  0
 15 51  1  0
 15 52  1  0
 17 53  1  0
 17 54  1  0
 18 55  1  0
 18 56  1  0
 19 57  1  0
 19 58  1  0
 20 59  1  0
 22 60  1  0
 23 61  1  0
 26 62  1  0
 27 63  1  0
 29 64  1  0
 30 65  1  0
 33 66  1  0
 34 67  1  0
 35 68  1  0
 35 69  1  0
 36 70  1  0
 36 71  1  0
M  END
$$$$
