
     RDKit          3D

 28 29  0  0  0  0  0  0  0  0999 V2000
    1.4845   -2.9683   -0.8032 C   0  0  0  0  0  0  0  0  0  0  0  0
    0.8971   -1.6741   -0.4786 N   0  0  0  0  0  0  0  0  0  0  0  0
   -0.3979   -1.4831   -0.2868 N   0  0  0  0  0  0  0  0  0  0  0  0
   -0.5864   -0.1745   -0.0068 C   0  0  0  0  0  0  0  0  0  0  0  0
    0.6366    0.4859   -0.0226 C   0  0  0  0  0  0  0  0  0  0  0  0
    1.5486   -0.5054   -0.3263 C   0  0  0  0  0  0  0  0  0  0  0  0
    2.9673   -0.3443   -0.4638 N   0  0  0  0  0  0  0  0  0  0  0  0
    3.7511    1.1865   -0.2536 S   0  0  0  0  0  6  0  0  0  0  0  0
    5.4053    1.0015   -0.4869 O   0  0  0  0  0  0  0  0  0  0  0  0
    3.2229    2.1658   -1.2633 O   0  0  0  0  0  0  0  0  0  0  0  0
    3.5010    1.7040    1.1351 O   0  0  0  0  0  0  0  0  0  0  0  0
   -1.9170    0.4208    0.2687 C   0  0  0  0  0  0  0  0  0  0  0  0
   -3.0670   -0.3911    0.2458 C   0  0  0  0  0  0  0  0  0  0  0  0
   -4.3277    0.1560    0.5035 C   0  0  0  0  0  0  0  0  0  0  0  0
   -4.4564    1.5169    0.7868 C   0  0  0  0  0  0  0  0  0  0  0  0
   -3.3244    2.3338    0.8129 C   0  0  0  0  0  0  0  0  0  0  0  0
   -2.0608    1.7926    0.5559 C   0  0  0  0  0  0  0  0  0  0  0  0
    2.0009   -2.9105   -1.7844 H   0  0  0  0  0  0  0  0  0  0  0  0
    0.6931   -3.7455   -0.8610 H   0  0  0  0  0  0  0  0  0  0  0  0
    2.2128   -3.2577   -0.0168 H   0  0  0  0  0  0  0  0  0  0  0  0
    0.8375    1.5321    0.1590 H   0  0  0  0  0  0  0  0  0  0  0  0
    3.5623   -1.1688   -0.6987 H   0  0  0  0  0  0  0  0  0  0  0  0
    5.6794    0.3130    0.1704 H   0  0  0  0  0  0  0  0  0  0  0  0
   -2.9935   -1.4493    0.0286 H   0  0  0  0  0  0  0  0  0  0  0  0
   -5.2057   -0.4766    0.4835 H   0  0  0  0  0  0  0  0  0  0  0  0
   -5.4331    1.9385    0.9861 H   0  0  0  0  0  0  0  0  0  0  0  0
   -3.4257    3.3889    1.0327 H   0  0  0  0  0  0  0  0  0  0  0  0
   -1.2048    2.4520    0.5839 H   0  0  0  0  0  0  0  0  0  0  0  0
  1  2  1  0
  2  3  1  0
  3  4  2  0
  4  5  1  0
  5  6  2  0
  6  7  1  0
  7  8  1  0
  8  9  1  0
  8 10  2  0
  8 11  2  0
  4 12  1  0
 12 13  2  0
 13 14  1  0
 14 15  2  0
 15 16  1  0
 16 17  2  0
  6  2  1  0
 17 12  1  0
  1 18  1  0
  1 19  1  0
  1 20  1  0
  5 21  1  0
  7 22  1  0
  9 23  1  0
 13 24  1  0
 14 25  1  0
 15 26  1  0
 16 27  1  0
 17 28  1  0
M  END
$$$$
