
     RDKit          3D

102106  0  0  0  0  0  0  0  0999 V2000
    1.5378    4.4229    0.9619 C   0  0  2  0  0  0  0  0  0  0  0  0
    2.4477    5.5582    0.4977 C   0  0  0  0  0  0  0  0  0  0  0  0
    3.8354    5.1844    0.9913 C   0  0  0  0  0  0  0  0  0  0  0  0
    3.8706    3.6600    1.0608 C   0  0  0  0  0  0  0  0  0  0  0  0
    2.4166    3.1783    0.9495 C   0  0  2  0  0  0  0  0  0  0  0  0
    2.0885    2.4816   -0.3864 C   0  0  2  0  0  0  0  0  0  0  0  0
    0.7662    2.9613   -0.7521 N   0  0  0  0  0  0  0  0  0  0  0  0
    0.3751    4.1396    0.0044 C   0  0  0  0  0  0  0  0  0  0  0  0
    0.1397    2.5889   -1.9887 C   0  0  0  0  0  0  0  0  0  0  0  0
    0.7304    2.8443   -3.0722 O   0  0  0  0  0  0  0  0  0  0  0  0
   -1.1438    1.7809   -2.0116 C   0  0  1  0  0  0  0  0  0  0  0  0
   -1.4067    1.2133   -0.6791 N   0  0  0  0  0  0  0  0  0  0  0  0
   -1.6354   -0.1854   -0.4412 C   0  0  0  0  0  0  0  0  0  0  0  0
   -1.5356   -1.0162   -1.3852 O   0  0  0  0  0  0  0  0  0  0  0  0
   -2.0814   -0.6329    0.9331 C   0  0  1  0  0  0  0  0  0  0  0  0
   -3.4469   -0.1497    1.1769 N   0  0  0  0  0  0  0  0  0  0  0  0
   -4.5892   -0.5305    0.3873 C   0  0  0  0  0  0  0  0  0  0  0  0
   -4.4507   -1.3314   -0.5771 O   0  0  0  0  0  0  0  0  0  0  0  0
   -5.9256    0.0272    0.6857 C   0  0  0  0  0  0  0  0  0  0  0  0
   -6.0880    0.8859    1.7299 N   0  0  0  0  0  0  0  0  0  0  0  0
   -7.2997    1.4215    2.0304 C   0  0  0  0  0  0  0  0  0  0  0  0
   -8.4083    1.0875    1.2525 C   0  0  0  0  0  0  0  0  0  0  0  0
   -8.2569    0.2326    0.2080 N   0  0  0  0  0  0  0  0  0  0  0  0
   -7.0458   -0.3049   -0.0943 C   0  0  0  0  0  0  0  0  0  0  0  0
   -1.9658   -2.1680    1.1808 C   0  0  0  0  0  0  0  0  0  0  0  0
   -2.5287   -2.5531    2.5688 C   0  0  0  0  0  0  0  0  0  0  0  0
   -2.5426   -4.0805    2.7813 C   0  0  0  0  0  0  0  0  0  0  0  0
   -1.4142   -4.8137    2.0338 C   0  0  0  0  0  0  0  0  0  0  0  0
   -0.1818   -3.9236    1.8710 C   0  0  0  0  0  0  0  0  0  0  0  0
   -0.4958   -2.6621    1.0408 C   0  0  0  0  0  0  0  0  0  0  0  0
   -2.3890    2.5734   -2.5534 C   0  0  0  0  0  0  0  0  0  0  0  0
   -2.1766    2.9656   -4.0342 C   0  0  0  0  0  0  0  0  0  0  0  0
   -3.6452    1.6764   -2.4817 C   0  0  0  0  0  0  0  0  0  0  0  0
   -2.6586    3.8566   -1.7383 C   0  0  0  0  0  0  0  0  0  0  0  0
    2.1018    0.9765   -0.2990 C   0  0  0  0  0  0  0  0  0  0  0  0
    1.6272    0.3942    0.7144 O   0  0  0  0  0  0  0  0  0  0  0  0
    2.5762    0.2082   -1.4146 N   0  0  0  0  0  0  0  0  0  0  0  0
    2.6145   -1.2595   -1.3977 C   0  0  1  0  0  0  0  0  0  0  0  0
    2.9131   -1.8352   -2.8065 C   0  0  0  0  0  0  0  0  0  0  0  0
    4.3952   -1.8517   -3.2373 C   0  0  0  0  0  0  0  0  0  0  0  0
    4.9922   -0.4607   -3.4368 C   0  0  0  0  0  0  0  0  0  0  0  0
    3.5849   -1.7696   -0.3537 C   0  0  0  0  0  0  0  0  0  0  0  0
    4.5272   -1.0281    0.0377 O   0  0  0  0  0  0  0  0  0  0  0  0
    3.4721   -3.1412    0.1798 C   0  0  0  0  0  0  0  0  0  0  0  0
    2.5804   -3.9131   -0.2661 O   0  0  0  0  0  0  0  0  0  0  0  0
    4.3741   -3.6048    1.1938 N   0  0  0  0  0  0  0  0  0  0  0  0
    4.2579   -4.9482    1.7537 C   0  0  0  0  0  0  0  0  0  0  0  0
    3.2166   -5.0454    2.8549 C   0  0  0  0  0  0  0  0  0  0  0  0
    4.6965   -5.0574    3.2041 C   0  0  0  0  0  0  0  0  0  0  0  0
    1.1679    4.6332    1.9911 H   0  0  0  0  0  0  0  0  0  0  0  0
    2.4694    5.6217   -0.6138 H   0  0  0  0  0  0  0  0  0  0  0  0
    2.1186    6.5349    0.9135 H   0  0  0  0  0  0  0  0  0  0  0  0
    4.6211    5.5765    0.3096 H   0  0  0  0  0  0  0  0  0  0  0  0
    3.9930    5.6096    2.0073 H   0  0  0  0  0  0  0  0  0  0  0  0
    4.3055    3.3378    2.0322 H   0  0  0  0  0  0  0  0  0  0  0  0
    4.5124    3.2485    0.2514 H   0  0  0  0  0  0  0  0  0  0  0  0
    2.1507    2.5421    1.8233 H   0  0  0  0  0  0  0  0  0  0  0  0
    2.8014    2.8106   -1.1755 H   0  0  0  0  0  0  0  0  0  0  0  0
   -0.5469    3.9246    0.5831 H   0  0  0  0  0  0  0  0  0  0  0  0
    0.1866    4.9984   -0.6754 H   0  0  0  0  0  0  0  0  0  0  0  0
   -0.9529    0.9445   -2.7199 H   0  0  0  0  0  0  0  0  0  0  0  0
   -1.5319    1.8622    0.1284 H   0  0  0  0  0  0  0  0  0  0  0  0
   -1.4099   -0.1320    1.6665 H   0  0  0  0  0  0  0  0  0  0  0  0
   -3.5773    0.5322    1.9577 H   0  0  0  0  0  0  0  0  0  0  0  0
   -7.4003    2.1011    2.8660 H   0  0  0  0  0  0  0  0  0  0  0  0
   -9.3812    1.5041    1.4761 H   0  0  0  0  0  0  0  0  0  0  0  0
   -6.9622   -0.9813   -0.9350 H   0  0  0  0  0  0  0  0  0  0  0  0
   -2.5763   -2.7001    0.4186 H   0  0  0  0  0  0  0  0  0  0  0  0
   -1.9062   -2.0767    3.3585 H   0  0  0  0  0  0  0  0  0  0  0  0
   -3.5674   -2.1797    2.6943 H   0  0  0  0  0  0  0  0  0  0  0  0
   -2.4592   -4.2878    3.8705 H   0  0  0  0  0  0  0  0  0  0  0  0
   -3.5181   -4.4918    2.4409 H   0  0  0  0  0  0  0  0  0  0  0  0
   -1.7723   -5.1227    1.0270 H   0  0  0  0  0  0  0  0  0  0  0  0
   -1.1375   -5.7354    2.5899 H   0  0  0  0  0  0  0  0  0  0  0  0
    0.1833   -3.6247    2.8783 H   0  0  0  0  0  0  0  0  0  0  0  0
    0.6261   -4.5045    1.3797 H   0  0  0  0  0  0  0  0  0  0  0  0
   -0.2947   -2.8858   -0.0289 H   0  0  0  0  0  0  0  0  0  0  0  0
    0.2165   -1.8666    1.3487 H   0  0  0  0  0  0  0  0  0  0  0  0
   -1.9212    2.0734   -4.6455 H   0  0  0  0  0  0  0  0  0  0  0  0
   -3.0978    3.4217   -4.4575 H   0  0  0  0  0  0  0  0  0  0  0  0
   -1.3653    3.7148   -4.1418 H   0  0  0  0  0  0  0  0  0  0  0  0
   -3.4694    0.7104   -3.0025 H   0  0  0  0  0  0  0  0  0  0  0  0
   -3.9197    1.4670   -1.4279 H   0  0  0  0  0  0  0  0  0  0  0  0
   -4.5185    2.1739   -2.9565 H   0  0  0  0  0  0  0  0  0  0  0  0
   -2.8120    3.6279   -0.6635 H   0  0  0  0  0  0  0  0  0  0  0  0
   -3.5742    4.3665   -2.1089 H   0  0  0  0  0  0  0  0  0  0  0  0
   -1.8183    4.5725   -1.8387 H   0  0  0  0  0  0  0  0  0  0  0  0
    2.7941    0.7216   -2.2974 H   0  0  0  0  0  0  0  0  0  0  0  0
    1.5955   -1.6084   -1.1201 H   0  0  0  0  0  0  0  0  0  0  0  0
    2.5541   -2.8873   -2.8282 H   0  0  0  0  0  0  0  0  0  0  0  0
    2.3110   -1.2911   -3.5669 H   0  0  0  0  0  0  0  0  0  0  0  0
    4.4635   -2.3942   -4.2051 H   0  0  0  0  0  0  0  0  0  0  0  0
    5.0100   -2.4199   -2.5074 H   0  0  0  0  0  0  0  0  0  0  0  0
    6.0055   -0.5557   -3.8809 H   0  0  0  0  0  0  0  0  0  0  0  0
    5.0940    0.0650   -2.4653 H   0  0  0  0  0  0  0  0  0  0  0  0
    4.3613    0.1383   -4.1272 H   0  0  0  0  0  0  0  0  0  0  0  0
    5.1761   -3.0034    1.4889 H   0  0  0  0  0  0  0  0  0  0  0  0
    4.3837   -5.8297    1.0899 H   0  0  0  0  0  0  0  0  0  0  0  0
    2.7233   -6.0370    2.9338 H   0  0  0  0  0  0  0  0  0  0  0  0
    2.7021   -4.0959    3.1157 H   0  0  0  0  0  0  0  0  0  0  0  0
    5.0834   -6.0575    3.4920 H   0  0  0  0  0  0  0  0  0  0  0  0
    5.0547   -4.1176    3.6764 H   0  0  0  0  0  0  0  0  0  0  0  0
  1  2  1  0
  2  3  1  0
  3  4  1  0
  4  5  1  0
  5  6  1  0
  6  7  1  0
  7  8  1  0
  7  9  1  0
  9 10  2  0
  9 11  1  0
 11 12  1  0
 12 13  1  0
 13 14  2  0
 13 15  1  0
 15 16  1  0
 16 17  1  0
 17 18  2  0
 17 19  1  0
 19 20  2  0
 20 21  1  0
 21 22  2  0
 22 23  1  0
 23 24  2  0
 15 25  1  0
 25 26  1  0
 26 27  1  0
 27 28  1  0
 28 29  1  0
 29 30  1  0
 11 31  1  0
 31 32  1  0
 31 33  1  0
 31 34  1  0
  6 35  1  0
 35 36  2  0
 35 37  1  0
 37 38  1  0
 38 39  1  0
 39 40  1  0
 40 41  1  0
 38 42  1  0
 42 43  2  0
 42 44  1  0
 44 45  2  0
 44 46  1  0
 46 47  1  0
 47 48  1  0
 48 49  1  0
  5  1  1  0
 24 19  1  0
 30 25  1  0
 49 47  1  0
  8  1  1  0
  1 50  1  1
  2 51  1  0
  2 52  1  0
  3 53  1  0
  3 54  1  0
  4 55  1  0
  4 56  1  0
  5 57  1  1
  6 58  1  6
  8 59  1  0
  8 60  1  0
 11 61  1  6
 12 62  1  0
 15 63  1  1
 16 64  1  0
 21 65  1  0
 22 66  1  0
 24 67  1  0
 25 68  1  0
 26 69  1  0
 26 70  1  0
 27 71  1  0
 27 72  1  0
 28 73  1  0
 28 74  1  0
 29 75  1  0
 29 76  1  0
 30 77  1  0
 30 78  1  0
 32 79  1  0
 32 80  1  0
 32 81  1  0
 33 82  1  0
 33 83  1  0
 33 84  1  0
 34 85  1  0
 34 86  1  0
 34 87  1  0
 37 88  1  0
 38 89  1  1
 39 90  1  0
 39 91  1  0
 40 92  1  0
 40 93  1  0
 41 94  1  0
 41 95  1  0
 41 96  1  0
 46 97  1  0
 47 98  1  0
 48 99  1  0
 48100  1  0
 49101  1  0
 49102  1  0
M  END
$$$$
