
     RDKit          3D

 45 45  0  0  0  0  0  0  0  0999 V2000
   -3.1206    0.5797    1.1289 C   0  0  1  0  0  0  0  0  0  0  0  0
   -2.7848    0.6741    2.6246 C   0  0  0  0  0  0  0  0  0  0  0  0
   -2.4285    1.9870    2.9646 O   0  0  0  0  0  0  0  0  0  0  0  0
   -1.9906    1.0182    0.3907 O   0  0  0  0  0  0  0  0  0  0  0  0
   -2.2827    1.0627   -0.9930 C   0  0  1  0  0  0  0  0  0  0  0  0
   -0.9213    1.9211   -1.8841 S   0  0  0  0  0  0  0  0  0  0  0  0
    0.4441    0.6994   -1.7666 C   0  0  0  0  0  0  0  0  0  0  0  0
    0.8811    0.4314   -0.3194 C   0  0  0  0  0  0  0  0  0  0  0  0
    2.2311   -0.3006   -0.2406 C   0  0  0  0  0  0  0  0  0  0  0  0
    3.4259    0.6591   -0.3789 C   0  0  0  0  0  0  0  0  0  0  0  0
    4.7753   -0.0761   -0.4719 C   0  0  0  0  0  0  0  0  0  0  0  0
    5.1481   -0.9056    0.7698 C   0  0  0  0  0  0  0  0  0  0  0  0
    5.2965   -0.0582    2.0328 C   0  0  0  0  0  0  0  0  0  0  0  0
   -2.5747   -0.3534   -1.5382 C   0  0  2  0  0  0  0  0  0  0  0  0
   -2.8313   -0.3263   -2.9206 O   0  0  0  0  0  0  0  0  0  0  0  0
   -3.7594   -0.9641   -0.7714 C   0  0  1  0  0  0  0  0  0  0  0  0
   -3.9137   -2.3065   -1.1554 O   0  0  0  0  0  0  0  0  0  0  0  0
   -3.4982   -0.8725    0.7457 C   0  0  2  0  0  0  0  0  0  0  0  0
   -4.6531   -1.2580    1.4476 O   0  0  0  0  0  0  0  0  0  0  0  0
   -3.9921    1.2505    0.9409 H   0  0  0  0  0  0  0  0  0  0  0  0
   -3.6502    0.3438    3.2434 H   0  0  0  0  0  0  0  0  0  0  0  0
   -1.9271    0.0066    2.8562 H   0  0  0  0  0  0  0  0  0  0  0  0
   -3.2710    2.5115    2.9942 H   0  0  0  0  0  0  0  0  0  0  0  0
   -3.1772    1.7051   -1.1659 H   0  0  0  0  0  0  0  0  0  0  0  0
    1.2901    1.1327   -2.3368 H   0  0  0  0  0  0  0  0  0  0  0  0
    0.1750   -0.2453   -2.2802 H   0  0  0  0  0  0  0  0  0  0  0  0
    0.1241   -0.2202    0.1636 H   0  0  0  0  0  0  0  0  0  0  0  0
    0.9296    1.3838    0.2524 H   0  0  0  0  0  0  0  0  0  0  0  0
    2.2789   -1.0935   -1.0192 H   0  0  0  0  0  0  0  0  0  0  0  0
    2.2872   -0.7968    0.7517 H   0  0  0  0  0  0  0  0  0  0  0  0
    3.3141    1.2613   -1.3045 H   0  0  0  0  0  0  0  0  0  0  0  0
    3.4367    1.3750    0.4700 H   0  0  0  0  0  0  0  0  0  0  0  0
    5.5751    0.6745   -0.6545 H   0  0  0  0  0  0  0  0  0  0  0  0
    4.7576   -0.7501   -1.3560 H   0  0  0  0  0  0  0  0  0  0  0  0
    6.1215   -1.4041    0.5707 H   0  0  0  0  0  0  0  0  0  0  0  0
    4.4029   -1.7100    0.9425 H   0  0  0  0  0  0  0  0  0  0  0  0
    5.9822    0.7964    1.8501 H   0  0  0  0  0  0  0  0  0  0  0  0
    4.3090    0.3217    2.3676 H   0  0  0  0  0  0  0  0  0  0  0  0
    5.7186   -0.6824    2.8483 H   0  0  0  0  0  0  0  0  0  0  0  0
   -1.6974   -1.0077   -1.3592 H   0  0  0  0  0  0  0  0  0  0  0  0
   -3.6156    0.2641   -3.0702 H   0  0  0  0  0  0  0  0  0  0  0  0
   -4.6829   -0.3861   -1.0180 H   0  0  0  0  0  0  0  0  0  0  0  0
   -4.8578   -2.5531   -0.9724 H   0  0  0  0  0  0  0  0  0  0  0  0
   -2.6431   -1.5412    1.0093 H   0  0  0  0  0  0  0  0  0  0  0  0
   -4.6316   -2.2480    1.5189 H   0  0  0  0  0  0  0  0  0  0  0  0
  1  2  1  0
  2  3  1  0
  1  4  1  0
  4  5  1  0
  5  6  1  0
  6  7  1  0
  7  8  1  0
  8  9  1  0
  9 10  1  0
 10 11  1  0
 11 12  1  0
 12 13  1  0
  5 14  1  0
 14 15  1  0
 14 16  1  0
 16 17  1  0
 16 18  1  0
 18 19  1  0
 18  1  1  0
  1 20  1  1
  2 21  1  0
  2 22  1  0
  3 23  1  0
  5 24  1  1
  7 25  1  0
  7 26  1  0
  8 27  1  0
  8 28  1  0
  9 29  1  0
  9 30  1  0
 10 31  1  0
 10 32  1  0
 11 33  1  0
 11 34  1  0
 12 35  1  0
 12 36  1  0
 13 37  1  0
 13 38  1  0
 13 39  1  0
 14 40  1  6
 15 41  1  0
 16 42  1  1
 17 43  1  0
 18 44  1  1
 19 45  1  0
M  END
$$$$
