
     RDKit          3D

 52 54  0  0  0  0  0  0  0  0999 V2000
    7.6163    1.4663    1.6515 O   0  0  0  0  0  0  0  0  0  0  0  0
    7.4624    0.0931    1.4896 C   0  0  0  0  0  0  0  0  0  0  0  0
    8.3346   -0.6965    1.9407 O   0  0  0  0  0  0  0  0  0  0  0  0
    6.2375   -0.4441    0.8287 C   0  0  0  0  0  0  0  0  0  0  0  0
    5.2499   -0.6689    1.8123 O   0  0  0  0  0  0  0  0  0  0  0  0
    4.0229   -1.0369    1.2096 C   0  0  0  0  0  0  0  0  0  0  0  0
    3.1272    0.1956    1.0358 C   0  0  0  0  0  0  0  0  0  0  0  0
    1.7639   -0.2028    0.6219 N   0  0  0  0  0  0  0  0  0  0  0  0
    1.6928   -0.4096   -0.8413 C   0  0  0  0  0  0  0  0  0  0  0  0
    0.2786   -0.8331   -1.2508 C   0  0  0  0  0  0  0  0  0  0  0  0
   -0.6878    0.1992   -0.8320 N   0  0  0  0  0  0  0  0  0  0  0  0
   -0.6286    0.3882    0.6321 C   0  0  0  0  0  0  0  0  0  0  0  0
    0.7827    0.8217    1.0341 C   0  0  0  0  0  0  0  0  0  0  0  0
   -2.0550   -0.0461   -1.3700 C   0  0  0  0  0  0  0  0  0  0  0  0
   -2.7759   -1.1834   -0.6449 C   0  0  0  0  0  0  0  0  0  0  0  0
   -3.5039   -0.9575    0.5415 C   0  0  0  0  0  0  0  0  0  0  0  0
   -4.1401   -2.0163    1.1953 C   0  0  0  0  0  0  0  0  0  0  0  0
   -4.0563   -3.3107    0.6782 C   0  0  0  0  0  0  0  0  0  0  0  0
   -3.3353   -3.5489   -0.4938 C   0  0  0  0  0  0  0  0  0  0  0  0
   -2.6976   -2.4934   -1.1521 C   0  0  0  0  0  0  0  0  0  0  0  0
   -2.8829    1.2365   -1.4468 C   0  0  0  0  0  0  0  0  0  0  0  0
   -4.2530    1.1658   -1.7736 C   0  0  0  0  0  0  0  0  0  0  0  0
   -5.0181    2.3280   -1.9035 C   0  0  0  0  0  0  0  0  0  0  0  0
   -4.4231    3.5808   -1.7412 C   0  0  0  0  0  0  0  0  0  0  0  0
   -5.3843    5.0385   -1.9084 Cl  0  0  0  0  0  0  0  0  0  0  0  0
   -3.0572    3.6712   -1.4643 C   0  0  0  0  0  0  0  0  0  0  0  0
   -2.2877    2.5115   -1.3336 C   0  0  0  0  0  0  0  0  0  0  0  0
    8.4336    1.8465    2.1137 H   0  0  0  0  0  0  0  0  0  0  0  0
    6.4959   -1.3970    0.3137 H   0  0  0  0  0  0  0  0  0  0  0  0
    5.8951    0.2968    0.0715 H   0  0  0  0  0  0  0  0  0  0  0  0
    3.5099   -1.7444    1.8952 H   0  0  0  0  0  0  0  0  0  0  0  0
    4.1546   -1.5789    0.2447 H   0  0  0  0  0  0  0  0  0  0  0  0
    3.1006    0.7156    2.0204 H   0  0  0  0  0  0  0  0  0  0  0  0
    3.5799    0.9046    0.3069 H   0  0  0  0  0  0  0  0  0  0  0  0
    1.9672    0.5219   -1.3879 H   0  0  0  0  0  0  0  0  0  0  0  0
    2.3922   -1.2135   -1.1524 H   0  0  0  0  0  0  0  0  0  0  0  0
    0.0375   -1.8146   -0.7849 H   0  0  0  0  0  0  0  0  0  0  0  0
    0.2603   -0.9528   -2.3562 H   0  0  0  0  0  0  0  0  0  0  0  0
   -0.8732   -0.5560    1.1678 H   0  0  0  0  0  0  0  0  0  0  0  0
   -1.3447    1.1742    0.9531 H   0  0  0  0  0  0  0  0  0  0  0  0
    0.8008    0.9418    2.1399 H   0  0  0  0  0  0  0  0  0  0  0  0
    1.0189    1.8065    0.5689 H   0  0  0  0  0  0  0  0  0  0  0  0
   -1.9558   -0.3447   -2.4384 H   0  0  0  0  0  0  0  0  0  0  0  0
   -3.5793    0.0375    0.9610 H   0  0  0  0  0  0  0  0  0  0  0  0
   -4.6976   -1.8330    2.1047 H   0  0  0  0  0  0  0  0  0  0  0  0
   -4.5489   -4.1295    1.1865 H   0  0  0  0  0  0  0  0  0  0  0  0
   -3.2692   -4.5530   -0.8924 H   0  0  0  0  0  0  0  0  0  0  0  0
   -2.1402   -2.6989   -2.0575 H   0  0  0  0  0  0  0  0  0  0  0  0
   -4.7329    0.2078   -1.9295 H   0  0  0  0  0  0  0  0  0  0  0  0
   -6.0721    2.2527   -2.1391 H   0  0  0  0  0  0  0  0  0  0  0  0
   -2.5872    4.6408   -1.3595 H   0  0  0  0  0  0  0  0  0  0  0  0
   -1.2276    2.6217   -1.1489 H   0  0  0  0  0  0  0  0  0  0  0  0
  1  2  1  0
  2  3  2  0
  2  4  1  0
  4  5  1  0
  5  6  1  0
  6  7  1  0
  7  8  1  0
  8  9  1  0
  9 10  1  0
 10 11  1  0
 11 12  1  0
 12 13  1  0
 11 14  1  0
 14 15  1  0
 15 16  2  0
 16 17  1  0
 17 18  2  0
 18 19  1  0
 19 20  2  0
 14 21  1  0
 21 22  2  0
 22 23  1  0
 23 24  2  0
 24 25  1  0
 24 26  1  0
 26 27  2  0
 13  8  1  0
 20 15  1  0
 27 21  1  0
  1 28  1  0
  4 29  1  0
  4 30  1  0
  6 31  1  0
  6 32  1  0
  7 33  1  0
  7 34  1  0
  9 35  1  0
  9 36  1  0
 10 37  1  0
 10 38  1  0
 12 39  1  0
 12 40  1  0
 13 41  1  0
 13 42  1  0
 14 43  1  0
 16 44  1  0
 17 45  1  0
 18 46  1  0
 19 47  1  0
 20 48  1  0
 22 49  1  0
 23 50  1  0
 26 51  1  0
 27 52  1  0
M  END
$$$$
