
     RDKit          3D

  9  8  0  0  0  0  0  0  0  0999 V2000
   -1.5821   -0.1595   -0.0283 N   0  0  0  0  0  0  0  0  0  0  0  0
   -0.2935    0.3759    0.2683 C   0  0  0  0  0  0  0  0  0  0  0  0
   -0.1958    1.5198    0.7872 O   0  0  0  0  0  0  0  0  0  0  0  0
    0.8833   -0.3813   -0.0217 N   0  0  0  0  0  0  0  0  0  0  0  0
    2.1107    0.1128    0.2680 O   0  0  0  0  0  0  0  0  0  0  0  0
   -1.6772   -1.1059   -0.4587 H   0  0  0  0  0  0  0  0  0  0  0  0
   -2.4438    0.3912    0.1824 H   0  0  0  0  0  0  0  0  0  0  0  0
    0.8016   -1.3349   -0.4400 H   0  0  0  0  0  0  0  0  0  0  0  0
    2.3969    0.5820   -0.5571 H   0  0  0  0  0  0  0  0  0  0  0  0
  1  2  1  0
  2  3  2  0
  2  4  1  0
  4  5  1  0
  1  6  1  0
  1  7  1  0
  4  8  1  0
  5  9  1  0
M  END
$$$$
