
     RDKit          3D

 67 71  0  0  0  0  0  0  0  0999 V2000
    1.1385   -1.4758   -1.2732 C   0  0  1  0  0  0  0  0  0  0  0  0
    0.8382   -2.8896   -0.7157 C   0  0  0  0  0  0  0  0  0  0  0  0
   -0.5828   -2.8252   -0.1226 C   0  0  0  0  0  0  0  0  0  0  0  0
   -1.1155   -1.4703   -0.5771 C   0  0  1  0  0  0  0  0  0  0  0  0
   -2.3273   -0.8466    0.1451 C   0  0  2  0  0  0  0  0  0  0  0  0
   -3.5109   -1.8342    0.1985 C   0  0  0  0  0  0  0  0  0  0  0  0
   -4.7492   -1.1876    0.8285 C   0  0  0  0  0  0  0  0  0  0  0  0
   -5.1379    0.0716    0.0429 C   0  0  1  0  0  0  0  0  0  0  0  0
   -6.3777    0.6703    0.5419 N   0  0  0  0  0  0  0  0  0  0  0  0
   -6.7645    1.9425    0.0129 C   0  0  0  0  0  0  0  0  0  0  0  0
   -7.9145    2.4042    0.2349 O   0  0  0  0  0  0  0  0  0  0  0  0
   -5.7942    2.7017   -0.7943 C   0  0  0  0  0  0  0  0  0  0  0  0
   -4.5154    2.2979   -0.8608 C   0  0  0  0  0  0  0  0  0  0  0  0
   -3.9994    1.1439    0.0027 C   0  0  1  0  0  0  0  0  0  0  0  0
   -3.7156    1.7220    1.4175 C   0  0  0  0  0  0  0  0  0  0  0  0
   -2.7201    0.4706   -0.6194 C   0  0  1  0  0  0  0  0  0  0  0  0
   -1.4938    1.4287   -0.7789 C   0  0  0  0  0  0  0  0  0  0  0  0
   -0.2485    0.7248   -1.3742 C   0  0  0  0  0  0  0  0  0  0  0  0
    0.1138   -0.5487   -0.5770 C   0  0  2  0  0  0  0  0  0  0  0  0
    0.6043   -0.1605    0.8555 C   0  0  0  0  0  0  0  0  0  0  0  0
    2.5887   -1.0358   -1.2006 C   0  0  0  0  0  0  0  0  0  0  0  0
    3.1045   -0.5099   -2.2247 O   0  0  0  0  0  0  0  0  0  0  0  0
    3.3780   -1.1862   -0.0061 N   0  0  0  0  0  0  0  0  0  0  0  0
    4.6552   -0.5486    0.1685 C   0  0  0  0  0  0  0  0  0  0  0  0
    4.8070    0.8061   -0.1758 C   0  0  0  0  0  0  0  0  0  0  0  0
    6.0278    1.4694    0.0193 C   0  0  0  0  0  0  0  0  0  0  0  0
    7.0862    0.7797    0.6265 C   0  0  0  0  0  0  0  0  0  0  0  0
    6.9457   -0.5616    0.9853 C   0  0  0  0  0  0  0  0  0  0  0  0
    5.7416   -1.2497    0.7468 C   0  0  0  0  0  0  0  0  0  0  0  0
    5.6097   -2.7046    1.1476 C   0  0  0  0  0  0  0  0  0  0  0  0
    6.8451   -3.2752    1.4031 F   0  0  0  0  0  0  0  0  0  0  0  0
    5.0106   -3.4276    0.1310 F   0  0  0  0  0  0  0  0  0  0  0  0
    4.8370   -2.7983    2.2904 F   0  0  0  0  0  0  0  0  0  0  0  0
    6.1598    2.9348   -0.3119 C   0  0  0  0  0  0  0  0  0  0  0  0
    5.7554    3.6856    0.7760 F   0  0  0  0  0  0  0  0  0  0  0  0
    5.3724    3.2606   -1.4028 F   0  0  0  0  0  0  0  0  0  0  0  0
    7.4723    3.2524   -0.6163 F   0  0  0  0  0  0  0  0  0  0  0  0
    0.8766   -1.5129   -2.3576 H   0  0  0  0  0  0  0  0  0  0  0  0
    1.5490   -3.2132    0.0695 H   0  0  0  0  0  0  0  0  0  0  0  0
    0.8785   -3.6372   -1.5381 H   0  0  0  0  0  0  0  0  0  0  0  0
   -1.2143   -3.6550   -0.5087 H   0  0  0  0  0  0  0  0  0  0  0  0
   -0.5489   -2.8804    0.9873 H   0  0  0  0  0  0  0  0  0  0  0  0
   -1.4387   -1.6280   -1.6367 H   0  0  0  0  0  0  0  0  0  0  0  0
   -2.0500   -0.6278    1.1933 H   0  0  0  0  0  0  0  0  0  0  0  0
   -3.7595   -2.1881   -0.8268 H   0  0  0  0  0  0  0  0  0  0  0  0
   -3.2325   -2.7218    0.8066 H   0  0  0  0  0  0  0  0  0  0  0  0
   -5.5879   -1.9165    0.7928 H   0  0  0  0  0  0  0  0  0  0  0  0
   -4.5590   -0.9470    1.8960 H   0  0  0  0  0  0  0  0  0  0  0  0
   -5.3388   -0.2541   -1.0049 H   0  0  0  0  0  0  0  0  0  0  0  0
   -6.9856    0.1774    1.2347 H   0  0  0  0  0  0  0  0  0  0  0  0
   -6.1184    3.5707   -1.3531 H   0  0  0  0  0  0  0  0  0  0  0  0
   -3.8457    2.8591   -1.4949 H   0  0  0  0  0  0  0  0  0  0  0  0
   -4.6488    2.0826    1.8984 H   0  0  0  0  0  0  0  0  0  0  0  0
   -3.0324    2.5945    1.3585 H   0  0  0  0  0  0  0  0  0  0  0  0
   -3.2635    0.9783    2.1001 H   0  0  0  0  0  0  0  0  0  0  0  0
   -3.0003    0.1720   -1.6566 H   0  0  0  0  0  0  0  0  0  0  0  0
   -1.2244    1.8882    0.1913 H   0  0  0  0  0  0  0  0  0  0  0  0
   -1.7447    2.2635   -1.4621 H   0  0  0  0  0  0  0  0  0  0  0  0
    0.6112    1.4299   -1.3742 H   0  0  0  0  0  0  0  0  0  0  0  0
   -0.4609    0.4665   -2.4353 H   0  0  0  0  0  0  0  0  0  0  0  0
   -0.1487    0.3988    1.4398 H   0  0  0  0  0  0  0  0  0  0  0  0
    1.4922    0.5025    0.7905 H   0  0  0  0  0  0  0  0  0  0  0  0
    0.8782   -1.0528    1.4536 H   0  0  0  0  0  0  0  0  0  0  0  0
    3.0245   -1.7768    0.7757 H   0  0  0  0  0  0  0  0  0  0  0  0
    3.9596    1.3519   -0.5720 H   0  0  0  0  0  0  0  0  0  0  0  0
    8.0235    1.2810    0.8333 H   0  0  0  0  0  0  0  0  0  0  0  0
    7.7851   -1.0570    1.4559 H   0  0  0  0  0  0  0  0  0  0  0  0
  1  2  1  0
  2  3  1  0
  3  4  1  0
  4  5  1  0
  5  6  1  0
  6  7  1  0
  7  8  1  0
  8  9  1  0
  9 10  1  0
 10 11  2  0
 10 12  1  0
 12 13  2  0
 13 14  1  0
 14 15  1  1
 14 16  1  0
 16 17  1  0
 17 18  1  0
 18 19  1  0
 19 20  1  1
  1 21  1  0
 21 22  2  0
 21 23  1  0
 23 24  1  0
 24 25  2  0
 25 26  1  0
 26 27  2  0
 27 28  1  0
 28 29  2  0
 29 30  1  0
 30 31  1  0
 30 32  1  0
 30 33  1  0
 26 34  1  0
 34 35  1  0
 34 36  1  0
 34 37  1  0
 19  1  1  0
 29 24  1  0
 19  4  1  0
 16  5  1  0
 14  8  1  0
  1 38  1  6
  2 39  1  0
  2 40  1  0
  3 41  1  0
  3 42  1  0
  4 43  1  6
  5 44  1  1
  6 45  1  0
  6 46  1  0
  7 47  1  0
  7 48  1  0
  8 49  1  6
  9 50  1  0
 12 51  1  0
 13 52  1  0
 15 53  1  0
 15 54  1  0
 15 55  1  0
 16 56  1  6
 17 57  1  0
 17 58  1  0
 18 59  1  0
 18 60  1  0
 20 61  1  0
 20 62  1  0
 20 63  1  0
 23 64  1  0
 25 65  1  0
 27 66  1  0
 28 67  1  0
M  END
$$$$
