
     RDKit          3D

 13 12  0  0  0  0  0  0  0  0999 V2000
    1.5501    1.3893    0.6524 O   0  0  0  0  0  0  0  0  0  0  0  0
    1.3869   -0.2733    0.4638 S   0  0  0  0  0  6  0  0  0  0  0  0
    1.2650   -0.9145    1.8174 O   0  0  0  0  0  0  0  0  0  0  0  0
    2.6078   -0.8146   -0.2252 O   0  0  0  0  0  0  0  0  0  0  0  0
   -0.0615   -0.6530   -0.5168 C   0  0  0  0  0  0  0  0  0  0  0  0
   -1.3624   -0.2958    0.2070 C   0  0  0  0  0  0  0  0  0  0  0  0
   -1.6171    1.5065    0.2935 S   0  0  0  0  0  0  0  0  0  0  0  0
    1.6461    1.7423   -0.2681 H   0  0  0  0  0  0  0  0  0  0  0  0
   -0.0012   -0.1175   -1.4878 H   0  0  0  0  0  0  0  0  0  0  0  0
   -0.0588   -1.7434   -0.7274 H   0  0  0  0  0  0  0  0  0  0  0  0
   -2.2180   -0.7417   -0.3431 H   0  0  0  0  0  0  0  0  0  0  0  0
   -1.3616   -0.7167    1.2344 H   0  0  0  0  0  0  0  0  0  0  0  0
   -1.7751    1.6324   -1.1000 H   0  0  0  0  0  0  0  0  0  0  0  0
  1  2  1  0
  2  3  2  0
  2  4  2  0
  2  5  1  0
  5  6  1  0
  6  7  1  0
  1  8  1  0
  5  9  1  0
  5 10  1  0
  6 11  1  0
  6 12  1  0
  7 13  1  0
M  END
$$$$
