
     RDKit          3D

120126  0  0  0  0  0  0  0  0999 V2000
    7.2625    0.1904    0.8264 C   0  0  2  0  0  0  0  0  0  0  0  0
    5.7969   -0.2048    0.5094 C   0  0  0  0  0  0  0  0  0  0  0  0
    5.6710   -1.4504   -0.3855 C   0  0  0  0  0  0  0  0  0  0  0  0
    6.4670   -1.2917   -1.6257 N   0  0  0  0  0  0  0  0  0  0  0  0
    5.7024   -0.6434   -2.7159 C   0  0  0  0  0  0  0  0  0  0  0  0
    4.9996   -1.6687   -3.6292 C   0  0  0  0  0  0  0  0  0  0  0  0
    4.7623   -2.8747   -2.9348 O   0  0  0  0  0  0  0  0  0  0  0  0
    5.9909   -3.5216   -2.6495 C   0  0  0  0  0  0  0  0  0  0  0  0
    7.0620   -2.5629   -2.0786 C   0  0  0  0  0  0  0  0  0  0  0  0
    7.9620   -0.8178    1.7573 C   0  0  0  0  0  0  0  0  0  0  0  0
    9.7490   -0.4552    1.9212 S   0  0  0  0  0  0  0  0  0  0  0  0
   10.2093   -1.2215    0.3615 C   0  0  0  0  0  0  0  0  0  0  0  0
   10.4157   -2.6056    0.2936 C   0  0  0  0  0  0  0  0  0  0  0  0
   10.7511   -3.2052   -0.9246 C   0  0  0  0  0  0  0  0  0  0  0  0
   10.8893   -2.4229   -2.0753 C   0  0  0  0  0  0  0  0  0  0  0  0
   10.6989   -1.0393   -2.0071 C   0  0  0  0  0  0  0  0  0  0  0  0
   10.3658   -0.4378   -0.7895 C   0  0  0  0  0  0  0  0  0  0  0  0
    7.3587    1.5523    1.3761 N   0  0  0  0  0  0  0  0  0  0  0  0
    6.3001    2.2276    2.0788 C   0  0  0  0  0  0  0  0  0  0  0  0
    5.7820    3.4508    1.5928 C   0  0  0  0  0  0  0  0  0  0  0  0
    4.7712    4.1048    2.3164 C   0  0  0  0  0  0  0  0  0  0  0  0
    4.2636    3.5502    3.4971 C   0  0  0  0  0  0  0  0  0  0  0  0
    4.7718    2.3365    3.9656 C   0  0  0  0  0  0  0  0  0  0  0  0
    5.7878    1.6845    3.2674 C   0  0  0  0  0  0  0  0  0  0  0  0
    2.9530    4.3424    4.3655 S   0  0  0  0  0  6  0  0  0  0  0  0
    3.2269    4.2799    5.8420 O   0  0  0  0  0  0  0  0  0  0  0  0
    2.8444    5.7867    3.9627 O   0  0  0  0  0  0  0  0  0  0  0  0
    1.4621    3.5307    4.0216 N   0  0  0  0  0  0  0  0  0  0  0  0
    0.9126    3.5000    2.6963 C   0  0  0  0  0  0  0  0  0  0  0  0
    1.5500    4.0321    1.7467 O   0  0  0  0  0  0  0  0  0  0  0  0
   -0.3817    2.8335    2.4166 C   0  0  0  0  0  0  0  0  0  0  0  0
   -1.3562    2.6839    3.4195 C   0  0  0  0  0  0  0  0  0  0  0  0
   -2.5722    2.0542    3.1386 C   0  0  0  0  0  0  0  0  0  0  0  0
   -2.8422    1.5697    1.8487 C   0  0  0  0  0  0  0  0  0  0  0  0
   -1.8748    1.7251    0.8450 C   0  0  0  0  0  0  0  0  0  0  0  0
   -0.6590    2.3547    1.1242 C   0  0  0  0  0  0  0  0  0  0  0  0
   -4.0911    0.9150    1.5555 N   0  0  0  0  0  0  0  0  0  0  0  0
   -4.9490    1.4207    0.4795 C   0  0  0  0  0  0  0  0  0  0  0  0
   -5.6791    0.2572   -0.1920 C   0  0  0  0  0  0  0  0  0  0  0  0
   -6.3966   -0.5493    0.8187 N   0  0  0  0  0  0  0  0  0  0  0  0
   -7.1685   -1.6297    0.1713 C   0  0  0  0  0  0  0  0  0  0  0  0
   -8.3879   -1.0696   -0.5330 C   0  0  0  0  0  0  0  0  0  0  0  0
   -8.7060   -1.3611   -1.8135 C   0  0  0  0  0  0  0  0  0  0  0  0
   -9.9990   -0.8271   -2.3752 C   0  0  0  0  0  0  0  0  0  0  0  0
  -11.1622   -1.0758   -1.3982 C   0  0  0  0  0  0  0  0  0  0  0  0
  -10.8163   -0.7620    0.1050 C   0  0  0  0  0  0  0  0  0  0  0  0
  -10.9763   -2.0454    0.9518 C   0  0  0  0  0  0  0  0  0  0  0  0
  -11.7890    0.3029    0.6523 C   0  0  0  0  0  0  0  0  0  0  0  0
   -9.3619   -0.2315    0.2622 C   0  0  0  0  0  0  0  0  0  0  0  0
   -7.8478   -2.1895   -2.6823 C   0  0  0  0  0  0  0  0  0  0  0  0
   -6.6717   -1.6591   -3.2340 C   0  0  0  0  0  0  0  0  0  0  0  0
   -5.8644   -2.4495   -4.0574 C   0  0  0  0  0  0  0  0  0  0  0  0
   -6.2318   -3.7694   -4.3412 C   0  0  0  0  0  0  0  0  0  0  0  0
   -5.2180   -4.7598   -5.3746 Cl  0  0  0  0  0  0  0  0  0  0  0  0
   -7.4107   -4.2973   -3.8031 C   0  0  0  0  0  0  0  0  0  0  0  0
   -8.2191   -3.5090   -2.9784 C   0  0  0  0  0  0  0  0  0  0  0  0
   -5.4347   -1.1254    1.7805 C   0  0  0  0  0  0  0  0  0  0  0  0
   -4.6873   -0.0136    2.5206 C   0  0  0  0  0  0  0  0  0  0  0  0
    6.3695    4.1447    0.0689 S   0  0  0  0  0  6  0  0  0  0  0  0
    7.7257    4.7503    0.2971 O   0  0  0  0  0  0  0  0  0  0  0  0
    6.4798    3.0544   -0.9604 O   0  0  0  0  0  0  0  0  0  0  0  0
    5.2864    5.3994   -0.5956 C   0  0  0  0  0  0  0  0  0  0  0  0
    5.3298    6.5289    0.2000 F   0  0  0  0  0  0  0  0  0  0  0  0
    5.7006    5.7324   -1.8712 F   0  0  0  0  0  0  0  0  0  0  0  0
    3.9916    4.9186   -0.6513 F   0  0  0  0  0  0  0  0  0  0  0  0
    7.8115    0.1977   -0.1361 H   0  0  0  0  0  0  0  0  0  0  0  0
    5.2962    0.6438   -0.0042 H   0  0  0  0  0  0  0  0  0  0  0  0
    5.2428   -0.3924    1.4541 H   0  0  0  0  0  0  0  0  0  0  0  0
    4.5955   -1.6201   -0.6168 H   0  0  0  0  0  0  0  0  0  0  0  0
    5.9948   -2.3390    0.1979 H   0  0  0  0  0  0  0  0  0  0  0  0
    4.9519    0.0698   -2.3082 H   0  0  0  0  0  0  0  0  0  0  0  0
    6.4030   -0.0373   -3.3294 H   0  0  0  0  0  0  0  0  0  0  0  0
    5.6054   -1.8543   -4.5465 H   0  0  0  0  0  0  0  0  0  0  0  0
    4.0263   -1.2528   -3.9654 H   0  0  0  0  0  0  0  0  0  0  0  0
    6.3750   -4.0269   -3.5631 H   0  0  0  0  0  0  0  0  0  0  0  0
    5.7907   -4.3152   -1.8989 H   0  0  0  0  0  0  0  0  0  0  0  0
    7.8093   -2.3413   -2.8722 H   0  0  0  0  0  0  0  0  0  0  0  0
    7.6260   -3.0511   -1.2533 H   0  0  0  0  0  0  0  0  0  0  0  0
    7.5090   -0.7912    2.7664 H   0  0  0  0  0  0  0  0  0  0  0  0
    7.8444   -1.8540    1.3817 H   0  0  0  0  0  0  0  0  0  0  0  0
   10.3030   -3.2177    1.1793 H   0  0  0  0  0  0  0  0  0  0  0  0
   10.8999   -4.2759   -0.9775 H   0  0  0  0  0  0  0  0  0  0  0  0
   11.1447   -2.8881   -3.0184 H   0  0  0  0  0  0  0  0  0  0  0  0
   10.8084   -0.4338   -2.8974 H   0  0  0  0  0  0  0  0  0  0  0  0
   10.2198    0.6340   -0.7438 H   0  0  0  0  0  0  0  0  0  0  0  0
    8.1632    2.1325    1.0470 H   0  0  0  0  0  0  0  0  0  0  0  0
    4.3634    5.0385    1.9605 H   0  0  0  0  0  0  0  0  0  0  0  0
    4.3816    1.8945    4.8738 H   0  0  0  0  0  0  0  0  0  0  0  0
    6.1772    0.7600    3.6646 H   0  0  0  0  0  0  0  0  0  0  0  0
    1.0282    2.9734    4.7894 H   0  0  0  0  0  0  0  0  0  0  0  0
   -1.1968    3.0740    4.4156 H   0  0  0  0  0  0  0  0  0  0  0  0
   -3.3112    1.9616    3.9241 H   0  0  0  0  0  0  0  0  0  0  0  0
   -2.0550    1.3424   -0.1516 H   0  0  0  0  0  0  0  0  0  0  0  0
    0.0722    2.4530    0.3311 H   0  0  0  0  0  0  0  0  0  0  0  0
   -4.3580    1.9678   -0.2857 H   0  0  0  0  0  0  0  0  0  0  0  0
   -5.6925    2.1271    0.9085 H   0  0  0  0  0  0  0  0  0  0  0  0
   -4.9449   -0.3671   -0.7512 H   0  0  0  0  0  0  0  0  0  0  0  0
   -6.3981    0.6874   -0.9222 H   0  0  0  0  0  0  0  0  0  0  0  0
   -6.5121   -2.2244   -0.5004 H   0  0  0  0  0  0  0  0  0  0  0  0
   -7.5509   -2.3379    0.9395 H   0  0  0  0  0  0  0  0  0  0  0  0
   -9.8893    0.2650   -2.5515 H   0  0  0  0  0  0  0  0  0  0  0  0
  -10.2328   -1.3029   -3.3528 H   0  0  0  0  0  0  0  0  0  0  0  0
  -11.4736   -2.1380   -1.5149 H   0  0  0  0  0  0  0  0  0  0  0  0
  -12.0308   -0.4745   -1.7467 H   0  0  0  0  0  0  0  0  0  0  0  0
  -10.2912   -2.8421    0.5899 H   0  0  0  0  0  0  0  0  0  0  0  0
  -12.0178   -2.4285    0.8882 H   0  0  0  0  0  0  0  0  0  0  0  0
  -10.7452   -1.8468    2.0208 H   0  0  0  0  0  0  0  0  0  0  0  0
  -12.8385   -0.0589    0.5951 H   0  0  0  0  0  0  0  0  0  0  0  0
  -11.7120    1.2413    0.0615 H   0  0  0  0  0  0  0  0  0  0  0  0
  -11.5578    0.5391    1.7137 H   0  0  0  0  0  0  0  0  0  0  0  0
   -9.0729   -0.2005    1.3363 H   0  0  0  0  0  0  0  0  0  0  0  0
   -9.2962    0.8125   -0.1168 H   0  0  0  0  0  0  0  0  0  0  0  0
   -6.3832   -0.6362   -3.0298 H   0  0  0  0  0  0  0  0  0  0  0  0
   -4.9562   -2.0347   -4.4759 H   0  0  0  0  0  0  0  0  0  0  0  0
   -7.7008   -5.3169   -4.0227 H   0  0  0  0  0  0  0  0  0  0  0  0
   -9.1291   -3.9269   -2.5651 H   0  0  0  0  0  0  0  0  0  0  0  0
   -5.9716   -1.7373    2.5387 H   0  0  0  0  0  0  0  0  0  0  0  0
   -4.7010   -1.7830    1.2597 H   0  0  0  0  0  0  0  0  0  0  0  0
   -5.3941    0.5398    3.1764 H   0  0  0  0  0  0  0  0  0  0  0  0
   -3.8991   -0.4748    3.1555 H   0  0  0  0  0  0  0  0  0  0  0  0
  1  2  1  0
  2  3  1  0
  3  4  1  0
  4  5  1  0
  5  6  1  0
  6  7  1  0
  7  8  1  0
  8  9  1  0
  1 10  1  0
 10 11  1  0
 11 12  1  0
 12 13  2  0
 13 14  1  0
 14 15  2  0
 15 16  1  0
 16 17  2  0
  1 18  1  0
 18 19  1  0
 19 20  2  0
 20 21  1  0
 21 22  2  0
 22 23  1  0
 23 24  2  0
 22 25  1  0
 25 26  2  0
 25 27  2  0
 25 28  1  0
 28 29  1  0
 29 30  2  0
 29 31  1  0
 31 32  2  0
 32 33  1  0
 33 34  2  0
 34 35  1  0
 35 36  2  0
 34 37  1  0
 37 38  1  0
 38 39  1  0
 39 40  1  0
 40 41  1  0
 41 42  1  0
 42 43  2  0
 43 44  1  0
 44 45  1  0
 45 46  1  0
 46 47  1  0
 46 48  1  0
 46 49  1  0
 43 50  1  0
 50 51  2  0
 51 52  1  0
 52 53  2  0
 53 54  1  0
 53 55  1  0
 55 56  2  0
 40 57  1  0
 57 58  1  0
 20 59  1  0
 59 60  2  0
 59 61  2  0
 59 62  1  0
 62 63  1  0
 62 64  1  0
 62 65  1  0
  9  4  1  0
 17 12  1  0
 24 19  1  0
 36 31  1  0
 58 37  1  0
 49 42  1  0
 56 50  1  0
  1 66  1  6
  2 67  1  0
  2 68  1  0
  3 69  1  0
  3 70  1  0
  5 71  1  0
  5 72  1  0
  6 73  1  0
  6 74  1  0
  8 75  1  0
  8 76  1  0
  9 77  1  0
  9 78  1  0
 10 79  1  0
 10 80  1  0
 13 81  1  0
 14 82  1  0
 15 83  1  0
 16 84  1  0
 17 85  1  0
 18 86  1  0
 21 87  1  0
 23 88  1  0
 24 89  1  0
 28 90  1  0
 32 91  1  0
 33 92  1  0
 35 93  1  0
 36 94  1  0
 38 95  1  0
 38 96  1  0
 39 97  1  0
 39 98  1  0
 41 99  1  0
 41100  1  0
 44101  1  0
 44102  1  0
 45103  1  0
 45104  1  0
 47105  1  0
 47106  1  0
 47107  1  0
 48108  1  0
 48109  1  0
 48110  1  0
 49111  1  0
 49112  1  0
 51113  1  0
 52114  1  0
 55115  1  0
 56116  1  0
 57117  1  0
 57118  1  0
 58119  1  0
 58120  1  0
M  END
$$$$
