
     RDKit          3D

 43 43  0  0  0  0  0  0  0  0999 V2000
   -3.4034    0.6485    0.9293 C   0  0  1  0  0  0  0  0  0  0  0  0
   -3.3144    2.0286    0.4349 N   0  0  0  0  0  0  0  0  0  0  0  0
   -3.4717   -0.3787   -0.2432 C   0  0  1  0  0  0  0  0  0  0  0  0
   -4.1772    0.1410   -1.3462 O   0  0  0  0  0  0  0  0  0  0  0  0
   -2.0522   -0.8997   -0.6230 C   0  0  1  0  0  0  0  0  0  0  0  0
   -1.9346   -1.3908   -2.0756 C   0  0  0  0  0  0  0  0  0  0  0  0
   -2.9013   -2.3681   -2.3540 O   0  0  0  0  0  0  0  0  0  0  0  0
   -1.1020    0.1224   -0.3975 O   0  0  0  0  0  0  0  0  0  0  0  0
   -0.8682    0.3048    0.9959 C   0  0  1  0  0  0  0  0  0  0  0  0
   -0.2045    1.5476    1.1719 O   0  0  0  0  0  0  0  0  0  0  0  0
    1.2050    1.4040    1.1867 C   0  0  0  0  0  0  0  0  0  0  0  0
    1.7663    1.1943   -0.2293 C   0  0  0  0  0  0  0  0  0  0  0  0
    3.2963    1.3434   -0.2962 C   0  0  0  0  0  0  0  0  0  0  0  0
    4.0849    0.3436    0.5739 C   0  0  0  0  0  0  0  0  0  0  0  0
    3.7876   -1.1397    0.2915 C   0  0  0  0  0  0  0  0  0  0  0  0
    4.1238   -1.5526   -1.1408 C   0  0  0  0  0  0  0  0  0  0  0  0
   -2.1860    0.3369    1.8324 C   0  0  2  0  0  0  0  0  0  0  0  0
   -2.3703   -0.9058    2.4651 O   0  0  0  0  0  0  0  0  0  0  0  0
   -4.3320    0.5545    1.5386 H   0  0  0  0  0  0  0  0  0  0  0  0
   -3.1896    2.6720    1.2502 H   0  0  0  0  0  0  0  0  0  0  0  0
   -4.2400    2.2913    0.0242 H   0  0  0  0  0  0  0  0  0  0  0  0
   -4.0483   -1.2583    0.1195 H   0  0  0  0  0  0  0  0  0  0  0  0
   -3.6098    0.8352   -1.7714 H   0  0  0  0  0  0  0  0  0  0  0  0
   -1.8161   -1.7876    0.0125 H   0  0  0  0  0  0  0  0  0  0  0  0
   -0.9143   -1.8048   -2.2456 H   0  0  0  0  0  0  0  0  0  0  0  0
   -2.0596   -0.5461   -2.7845 H   0  0  0  0  0  0  0  0  0  0  0  0
   -2.6025   -3.2003   -1.9024 H   0  0  0  0  0  0  0  0  0  0  0  0
   -0.2533   -0.5518    1.3672 H   0  0  0  0  0  0  0  0  0  0  0  0
    1.6270    2.3472    1.5940 H   0  0  0  0  0  0  0  0  0  0  0  0
    1.5325    0.5966    1.8791 H   0  0  0  0  0  0  0  0  0  0  0  0
    1.4697    0.1991   -0.6191 H   0  0  0  0  0  0  0  0  0  0  0  0
    1.3168    1.9558   -0.9031 H   0  0  0  0  0  0  0  0  0  0  0  0
    3.6190    1.2443   -1.3545 H   0  0  0  0  0  0  0  0  0  0  0  0
    3.5697    2.3738    0.0195 H   0  0  0  0  0  0  0  0  0  0  0  0
    3.8844    0.5504    1.6466 H   0  0  0  0  0  0  0  0  0  0  0  0
    5.1705    0.5258    0.4179 H   0  0  0  0  0  0  0  0  0  0  0  0
    4.4047   -1.7530    0.9833 H   0  0  0  0  0  0  0  0  0  0  0  0
    2.7254   -1.3758    0.5121 H   0  0  0  0  0  0  0  0  0  0  0  0
    3.4275   -1.0737   -1.8602 H   0  0  0  0  0  0  0  0  0  0  0  0
    4.0200   -2.6535   -1.2415 H   0  0  0  0  0  0  0  0  0  0  0  0
    5.1685   -1.2708   -1.3913 H   0  0  0  0  0  0  0  0  0  0  0  0
   -2.0979    1.1210    2.6220 H   0  0  0  0  0  0  0  0  0  0  0  0
   -3.0502   -0.7709    3.1762 H   0  0  0  0  0  0  0  0  0  0  0  0
  1  2  1  0
  1  3  1  0
  3  4  1  0
  3  5  1  0
  5  6  1  0
  6  7  1  0
  5  8  1  0
  8  9  1  0
  9 10  1  0
 10 11  1  0
 11 12  1  0
 12 13  1  0
 13 14  1  0
 14 15  1  0
 15 16  1  0
  9 17  1  0
 17 18  1  0
 17  1  1  0
  1 19  1  1
  2 20  1  0
  2 21  1  0
  3 22  1  1
  4 23  1  0
  5 24  1  1
  6 25  1  0
  6 26  1  0
  7 27  1  0
  9 28  1  1
 11 29  1  0
 11 30  1  0
 12 31  1  0
 12 32  1  0
 13 33  1  0
 13 34  1  0
 14 35  1  0
 14 36  1  0
 15 37  1  0
 15 38  1  0
 16 39  1  0
 16 40  1  0
 16 41  1  0
 17 42  1  1
 18 43  1  0
M  END
$$$$
