
     RDKit          3D

 51 53  0  0  0  0  0  0  0  0999 V2000
   -1.2024    0.3140   -0.5371 C   0  0  2  0  0  0  0  0  0  0  0  0
   -1.2512   -0.6496    0.5654 N   0  0  0  0  0  0  0  0  0  0  0  0
   -1.1368   -0.3966   -1.9109 C   0  0  0  0  0  0  0  0  0  0  0  0
   -2.3600   -1.2382   -2.1687 C   0  0  0  0  0  0  0  0  0  0  0  0
   -2.3267   -2.6265   -1.9524 C   0  0  0  0  0  0  0  0  0  0  0  0
   -3.4715   -3.4000   -2.1672 C   0  0  0  0  0  0  0  0  0  0  0  0
   -4.6565   -2.7941   -2.5938 C   0  0  0  0  0  0  0  0  0  0  0  0
   -4.6995   -1.4130   -2.8038 C   0  0  0  0  0  0  0  0  0  0  0  0
   -3.5571   -0.6356   -2.5898 C   0  0  0  0  0  0  0  0  0  0  0  0
   -0.0253    1.2385   -0.3226 C   0  0  0  0  0  0  0  0  0  0  0  0
    0.9926    1.1412   -1.0623 O   0  0  0  0  0  0  0  0  0  0  0  0
   -0.0190    2.1881    0.7610 N   0  0  0  0  0  0  0  0  0  0  0  0
   -1.1918    2.5442    1.5445 C   0  0  0  0  0  0  0  0  0  0  0  0
   -0.6918    3.4827    2.6363 C   0  0  0  0  0  0  0  0  0  0  0  0
    0.6934    3.9453    2.1904 C   0  0  0  0  0  0  0  0  0  0  0  0
    1.1785    2.8984    1.1849 C   0  0  1  0  0  0  0  0  0  0  0  0
    2.1486    1.9232    1.8012 C   0  0  0  0  0  0  0  0  0  0  0  0
    1.8635    1.3610    2.8943 O   0  0  0  0  0  0  0  0  0  0  0  0
    3.3509    1.5703    1.1037 N   0  0  0  0  0  0  0  0  0  0  0  0
    4.0922    0.3487    1.4049 C   0  0  0  0  0  0  0  0  0  0  0  0
    3.3262   -0.8502    0.9137 C   0  0  0  0  0  0  0  0  0  0  0  0
    2.6464   -1.6846    1.8167 C   0  0  0  0  0  0  0  0  0  0  0  0
    1.9040   -2.7729    1.3471 C   0  0  0  0  0  0  0  0  0  0  0  0
    1.8254   -3.0284   -0.0249 C   0  0  0  0  0  0  0  0  0  0  0  0
    2.4897   -2.1963   -0.9296 C   0  0  0  0  0  0  0  0  0  0  0  0
    3.2384   -1.1111   -0.4638 C   0  0  0  0  0  0  0  0  0  0  0  0
   -2.1265    0.9329   -0.5146 H   0  0  0  0  0  0  0  0  0  0  0  0
   -0.5053   -1.3700    0.4341 H   0  0  0  0  0  0  0  0  0  0  0  0
   -2.1750   -1.1390    0.5543 H   0  0  0  0  0  0  0  0  0  0  0  0
   -1.0539    0.3672   -2.7155 H   0  0  0  0  0  0  0  0  0  0  0  0
   -0.2220   -1.0273   -1.9703 H   0  0  0  0  0  0  0  0  0  0  0  0
   -1.4175   -3.1079   -1.6135 H   0  0  0  0  0  0  0  0  0  0  0  0
   -3.4408   -4.4690   -2.0003 H   0  0  0  0  0  0  0  0  0  0  0  0
   -5.5420   -3.3942   -2.7587 H   0  0  0  0  0  0  0  0  0  0  0  0
   -5.6189   -0.9444   -3.1302 H   0  0  0  0  0  0  0  0  0  0  0  0
   -3.6046    0.4345   -2.7499 H   0  0  0  0  0  0  0  0  0  0  0  0
   -1.9301    3.0623    0.8951 H   0  0  0  0  0  0  0  0  0  0  0  0
   -1.6519    1.6400    1.9970 H   0  0  0  0  0  0  0  0  0  0  0  0
   -0.6041    2.9265    3.5956 H   0  0  0  0  0  0  0  0  0  0  0  0
   -1.3801    4.3443    2.7767 H   0  0  0  0  0  0  0  0  0  0  0  0
    0.5982    4.9283    1.6782 H   0  0  0  0  0  0  0  0  0  0  0  0
    1.3803    4.0678    3.0570 H   0  0  0  0  0  0  0  0  0  0  0  0
    1.6428    3.4120    0.3141 H   0  0  0  0  0  0  0  0  0  0  0  0
    3.6457    2.1359    0.2760 H   0  0  0  0  0  0  0  0  0  0  0  0
    5.0788    0.3825    0.8937 H   0  0  0  0  0  0  0  0  0  0  0  0
    4.2930    0.2861    2.4967 H   0  0  0  0  0  0  0  0  0  0  0  0
    2.6875   -1.4917    2.8814 H   0  0  0  0  0  0  0  0  0  0  0  0
    1.3818   -3.4130    2.0463 H   0  0  0  0  0  0  0  0  0  0  0  0
    1.2427   -3.8655   -0.3871 H   0  0  0  0  0  0  0  0  0  0  0  0
    2.4204   -2.3892   -1.9923 H   0  0  0  0  0  0  0  0  0  0  0  0
    3.7411   -0.4677   -1.1754 H   0  0  0  0  0  0  0  0  0  0  0  0
  1  2  1  0
  1  3  1  0
  3  4  1  0
  4  5  2  0
  5  6  1  0
  6  7  2  0
  7  8  1  0
  8  9  2  0
  1 10  1  0
 10 11  2  0
 10 12  1  0
 12 13  1  0
 13 14  1  0
 14 15  1  0
 15 16  1  0
 16 17  1  0
 17 18  2  0
 17 19  1  0
 19 20  1  0
 20 21  1  0
 21 22  2  0
 22 23  1  0
 23 24  2  0
 24 25  1  0
 25 26  2  0
  9  4  1  0
 16 12  1  0
 26 21  1  0
  1 27  1  6
  2 28  1  0
  2 29  1  0
  3 30  1  0
  3 31  1  0
  5 32  1  0
  6 33  1  0
  7 34  1  0
  8 35  1  0
  9 36  1  0
 13 37  1  0
 13 38  1  0
 14 39  1  0
 14 40  1  0
 15 41  1  0
 15 42  1  0
 16 43  1  6
 19 44  1  0
 20 45  1  0
 20 46  1  0
 22 47  1  0
 23 48  1  0
 24 49  1  0
 25 50  1  0
 26 51  1  0
M  END
$$$$
