
     RDKit          3D

 21 22  0  0  0  0  0  0  0  0999 V2000
    4.2145    0.2980   -0.3154 O   0  0  0  0  0  0  0  0  0  0  0  0
    3.1308   -0.5456   -0.5465 C   0  0  0  0  0  0  0  0  0  0  0  0
    3.3328   -1.6905   -1.0334 O   0  0  0  0  0  0  0  0  0  0  0  0
    1.7559   -0.1032   -0.2240 C   0  0  0  0  0  0  0  0  0  0  0  0
    1.5375    1.1726    0.3179 C   0  0  0  0  0  0  0  0  0  0  0  0
    0.2406    1.5899    0.6222 C   0  0  0  0  0  0  0  0  0  0  0  0
    0.0599    2.7395    1.1088 O   0  0  0  0  0  0  0  0  0  0  0  0
   -0.8436    0.7282    0.3838 C   0  0  0  0  0  0  0  0  0  0  0  0
   -2.1684    1.1055    0.6747 C   0  0  0  0  0  0  0  0  0  0  0  0
   -3.2222    0.2227    0.4245 C   0  0  0  0  0  0  0  0  0  0  0  0
   -2.9684   -1.0397   -0.1155 C   0  0  0  0  0  0  0  0  0  0  0  0
   -1.6589   -1.4277   -0.4092 C   0  0  0  0  0  0  0  0  0  0  0  0
   -0.5883   -0.5520   -0.1637 C   0  0  0  0  0  0  0  0  0  0  0  0
    0.6917   -0.9307   -0.4505 N   0  0  0  0  0  0  0  0  0  0  0  0
    5.1589    0.0034   -0.5332 H   0  0  0  0  0  0  0  0  0  0  0  0
    2.3679    1.8431    0.5048 H   0  0  0  0  0  0  0  0  0  0  0  0
   -2.3915    2.0790    1.0940 H   0  0  0  0  0  0  0  0  0  0  0  0
   -4.2388    0.5180    0.6501 H   0  0  0  0  0  0  0  0  0  0  0  0
   -3.7887   -1.7194   -0.3072 H   0  0  0  0  0  0  0  0  0  0  0  0
   -1.4799   -2.4104   -0.8277 H   0  0  0  0  0  0  0  0  0  0  0  0
    0.8584   -1.8808   -0.8545 H   0  0  0  0  0  0  0  0  0  0  0  0
  1  2  1  0
  2  3  2  0
  2  4  1  0
  4  5  2  0
  5  6  1  0
  6  7  2  0
  6  8  1  0
  8  9  2  0
  9 10  1  0
 10 11  2  0
 11 12  1  0
 12 13  2  0
 13 14  1  0
 14  4  1  0
 13  8  1  0
  1 15  1  0
  5 16  1  0
  9 17  1  0
 10 18  1  0
 11 19  1  0
 12 20  1  0
 14 21  1  0
M  END
$$$$
