
     RDKit          3D

 34 35  0  0  0  0  0  0  0  0999 V2000
    5.0924   -1.8324   -2.3159 N   0  0  0  0  0  0  0  0  0  0  0  0
    5.2105   -0.7438   -0.9786 S   0  0  0  0  0  6  0  0  0  0  0  0
    5.8080   -1.4561    0.2028 O   0  0  0  0  0  0  0  0  0  0  0  0
    6.1017    0.4089   -1.3478 O   0  0  0  0  0  0  0  0  0  0  0  0
    3.6060   -0.1491   -0.5649 C   0  0  0  0  0  0  0  0  0  0  0  0
    2.7968   -0.8689    0.3222 C   0  0  0  0  0  0  0  0  0  0  0  0
    1.5170   -0.4069    0.6433 C   0  0  0  0  0  0  0  0  0  0  0  0
    1.0273    0.7861    0.0806 C   0  0  0  0  0  0  0  0  0  0  0  0
    1.8385    1.4925   -0.8257 C   0  0  0  0  0  0  0  0  0  0  0  0
    3.1182    1.0286   -1.1441 C   0  0  0  0  0  0  0  0  0  0  0  0
   -0.3312    1.2832    0.4045 C   0  0  0  0  0  0  0  0  0  0  0  0
   -0.9180    2.0526   -0.4050 O   0  0  0  0  0  0  0  0  0  0  0  0
   -0.9824    0.9152    1.6313 N   0  0  0  0  0  0  0  0  0  0  0  0
   -2.3998    1.1770    1.8712 C   0  0  0  0  0  0  0  0  0  0  0  0
   -3.2471    0.2582    1.0302 C   0  0  0  0  0  0  0  0  0  0  0  0
   -3.2771   -1.1155    1.3239 C   0  0  0  0  0  0  0  0  0  0  0  0
   -4.0387   -1.9886    0.5422 C   0  0  0  0  0  0  0  0  0  0  0  0
   -4.7734   -1.4993   -0.5402 C   0  0  0  0  0  0  0  0  0  0  0  0
   -4.7472   -0.1355   -0.8445 C   0  0  0  0  0  0  0  0  0  0  0  0
   -5.4600    0.3336   -1.8985 F   0  0  0  0  0  0  0  0  0  0  0  0
   -3.9863    0.7445   -0.0656 C   0  0  0  0  0  0  0  0  0  0  0  0
   -3.9719    2.0646   -0.3814 F   0  0  0  0  0  0  0  0  0  0  0  0
    4.5028   -2.6362   -2.0037 H   0  0  0  0  0  0  0  0  0  0  0  0
    6.0510   -2.2104   -2.4879 H   0  0  0  0  0  0  0  0  0  0  0  0
    3.1523   -1.7935    0.7592 H   0  0  0  0  0  0  0  0  0  0  0  0
    0.9068   -1.0005    1.3109 H   0  0  0  0  0  0  0  0  0  0  0  0
    1.4866    2.4092   -1.2825 H   0  0  0  0  0  0  0  0  0  0  0  0
    3.7258    1.5876   -1.8442 H   0  0  0  0  0  0  0  0  0  0  0  0
   -0.4282    0.4834    2.4039 H   0  0  0  0  0  0  0  0  0  0  0  0
   -2.6235    2.2472    1.6736 H   0  0  0  0  0  0  0  0  0  0  0  0
   -2.6304    0.9941    2.9434 H   0  0  0  0  0  0  0  0  0  0  0  0
   -2.7074   -1.5090    2.1568 H   0  0  0  0  0  0  0  0  0  0  0  0
   -4.0575   -3.0455    0.7747 H   0  0  0  0  0  0  0  0  0  0  0  0
   -5.3616   -2.1783   -1.1440 H   0  0  0  0  0  0  0  0  0  0  0  0
  1  2  1  0
  2  3  2  0
  2  4  2  0
  2  5  1  0
  5  6  2  0
  6  7  1  0
  7  8  2  0
  8  9  1  0
  9 10  2  0
  8 11  1  0
 11 12  2  0
 11 13  1  0
 13 14  1  0
 14 15  1  0
 15 16  2  0
 16 17  1  0
 17 18  2  0
 18 19  1  0
 19 20  1  0
 19 21  2  0
 21 22  1  0
 10  5  1  0
 21 15  1  0
  1 23  1  0
  1 24  1  0
  6 25  1  0
  7 26  1  0
  9 27  1  0
 10 28  1  0
 13 29  1  0
 14 30  1  0
 14 31  1  0
 16 32  1  0
 17 33  1  0
 18 34  1  0
M  END
$$$$
