
     RDKit          3D

 33 34  0  0  0  0  0  0  0  0999 V2000
   -3.0348   -3.4124   -0.4576 C   0  0  0  0  0  0  0  0  0  0  0  0
   -2.0826   -2.2601   -0.3298 C   0  0  0  0  0  0  0  0  0  0  0  0
   -0.7254   -2.4320   -0.6237 C   0  0  0  0  0  0  0  0  0  0  0  0
    0.1539   -1.3515   -0.5480 C   0  0  0  0  0  0  0  0  0  0  0  0
   -0.3064   -0.0740   -0.1800 C   0  0  0  0  0  0  0  0  0  0  0  0
    0.6107    1.0360   -0.1355 N   0  0  0  0  0  0  0  0  0  0  0  0
    2.0138    0.8921    0.1384 C   0  0  0  0  0  0  0  0  0  0  0  0
    2.4737    0.2268    1.2964 C   0  0  0  0  0  0  0  0  0  0  0  0
    1.3619   -0.3967    2.5097 Cl  0  0  0  0  0  0  0  0  0  0  0  0
    3.8490    0.1037    1.5286 C   0  0  0  0  0  0  0  0  0  0  0  0
    4.7677    0.6472    0.6282 C   0  0  0  0  0  0  0  0  0  0  0  0
    4.3176    1.3274   -0.5047 C   0  0  0  0  0  0  0  0  0  0  0  0
    2.9471    1.4568   -0.7470 C   0  0  0  0  0  0  0  0  0  0  0  0
    2.5262    2.1138   -1.8571 F   0  0  0  0  0  0  0  0  0  0  0  0
   -1.6811    0.1083    0.1083 C   0  0  0  0  0  0  0  0  0  0  0  0
   -2.2429    1.4539    0.5007 C   0  0  0  0  0  0  0  0  0  0  0  0
   -2.6773    2.2153   -0.7120 C   0  0  0  0  0  0  0  0  0  0  0  0
   -1.9270    3.2976   -1.1607 O   0  0  0  0  0  0  0  0  0  0  0  0
   -3.7164    1.8689   -1.3352 O   0  0  0  0  0  0  0  0  0  0  0  0
   -2.5574   -0.9876    0.0146 C   0  0  0  0  0  0  0  0  0  0  0  0
   -2.5199   -4.3732   -0.2438 H   0  0  0  0  0  0  0  0  0  0  0  0
   -3.8753   -3.3070    0.2611 H   0  0  0  0  0  0  0  0  0  0  0  0
   -3.4422   -3.4417   -1.4897 H   0  0  0  0  0  0  0  0  0  0  0  0
   -0.3472   -3.4029   -0.9192 H   0  0  0  0  0  0  0  0  0  0  0  0
    1.1958   -1.5104   -0.7948 H   0  0  0  0  0  0  0  0  0  0  0  0
    0.2809    1.9675   -0.4718 H   0  0  0  0  0  0  0  0  0  0  0  0
    4.2077   -0.4036    2.4153 H   0  0  0  0  0  0  0  0  0  0  0  0
    5.8296    0.5502    0.8142 H   0  0  0  0  0  0  0  0  0  0  0  0
    5.0325    1.7544   -1.1963 H   0  0  0  0  0  0  0  0  0  0  0  0
   -1.4963    2.0425    1.0749 H   0  0  0  0  0  0  0  0  0  0  0  0
   -3.1163    1.3229    1.1762 H   0  0  0  0  0  0  0  0  0  0  0  0
   -2.2057    3.8171   -1.9844 H   0  0  0  0  0  0  0  0  0  0  0  0
   -3.6137   -0.8496    0.2149 H   0  0  0  0  0  0  0  0  0  0  0  0
  1  2  1  0
  2  3  2  0
  3  4  1  0
  4  5  2  0
  5  6  1  0
  6  7  1  0
  7  8  2  0
  8  9  1  0
  8 10  1  0
 10 11  2  0
 11 12  1  0
 12 13  2  0
 13 14  1  0
  5 15  1  0
 15 16  1  0
 16 17  1  0
 17 18  1  0
 17 19  2  0
 15 20  2  0
 20  2  1  0
 13  7  1  0
  1 21  1  0
  1 22  1  0
  1 23  1  0
  3 24  1  0
  4 25  1  0
  6 26  1  0
 10 27  1  0
 11 28  1  0
 12 29  1  0
 16 30  1  0
 16 31  1  0
 18 32  1  0
 20 33  1  0
M  END
$$$$
