
     RDKit          3D

 37 39  0  0  0  0  0  0  0  0999 V2000
   -2.1304   -1.4459    0.6181 C   0  0  1  0  0  0  0  0  0  0  0  0
   -2.6887   -2.8162    0.2232 C   0  0  0  0  0  0  0  0  0  0  0  0
   -0.7358   -1.3157    0.1884 N   0  0  0  0  0  0  0  0  0  0  0  0
    0.0900   -0.2408    0.6428 C   0  0  0  0  0  0  0  0  0  0  0  0
    1.3917    0.1507    0.3931 C   0  0  0  0  0  0  0  0  0  0  0  0
    2.4360   -0.3534   -0.4464 N   0  0  0  0  0  0  0  0  0  0  0  0
    3.7915    0.1155   -0.3951 C   0  0  0  0  0  0  0  0  0  0  0  0
    4.4009    0.4573    0.8227 C   0  0  0  0  0  0  0  0  0  0  0  0
    5.7308    0.8852    0.8308 C   0  0  0  0  0  0  0  0  0  0  0  0
    6.4327    0.9539   -0.3314 N   0  0  0  0  0  0  0  0  0  0  0  0
    5.8740    0.6094   -1.5217 C   0  0  0  0  0  0  0  0  0  0  0  0
    4.5471    0.1754   -1.5736 C   0  0  0  0  0  0  0  0  0  0  0  0
    1.2238    1.2348    1.2383 C   0  0  0  0  0  0  0  0  0  0  0  0
    1.9409    2.2015    1.6073 O   0  0  0  0  0  0  0  0  0  0  0  0
   -0.0668    0.8290    1.5046 C   0  0  0  0  0  0  0  0  0  0  0  0
   -1.0025    1.2631    2.2260 O   0  0  0  0  0  0  0  0  0  0  0  0
   -2.9763   -0.3448    0.0153 C   0  0  0  0  0  0  0  0  0  0  0  0
   -2.8869   -0.0369   -1.3553 C   0  0  0  0  0  0  0  0  0  0  0  0
   -3.6829    0.9719   -1.9059 C   0  0  0  0  0  0  0  0  0  0  0  0
   -4.5803    1.6752   -1.0986 C   0  0  0  0  0  0  0  0  0  0  0  0
   -4.6863    1.3682    0.2602 C   0  0  0  0  0  0  0  0  0  0  0  0
   -3.8925    0.3600    0.8157 C   0  0  0  0  0  0  0  0  0  0  0  0
   -2.1589   -1.3853    1.7292 H   0  0  0  0  0  0  0  0  0  0  0  0
   -2.0820   -3.6198    0.6921 H   0  0  0  0  0  0  0  0  0  0  0  0
   -2.6650   -2.9488   -0.8798 H   0  0  0  0  0  0  0  0  0  0  0  0
   -3.7374   -2.9176    0.5762 H   0  0  0  0  0  0  0  0  0  0  0  0
   -0.3185   -2.0108   -0.4714 H   0  0  0  0  0  0  0  0  0  0  0  0
    2.1681   -1.0349   -1.1916 H   0  0  0  0  0  0  0  0  0  0  0  0
    3.8655    0.3692    1.7584 H   0  0  0  0  0  0  0  0  0  0  0  0
    6.2083    1.1536    1.7637 H   0  0  0  0  0  0  0  0  0  0  0  0
    6.4607    0.6697   -2.4286 H   0  0  0  0  0  0  0  0  0  0  0  0
    4.1077   -0.1013   -2.5238 H   0  0  0  0  0  0  0  0  0  0  0  0
   -2.2004   -0.5765   -1.9958 H   0  0  0  0  0  0  0  0  0  0  0  0
   -3.6055    1.2070   -2.9596 H   0  0  0  0  0  0  0  0  0  0  0  0
   -5.1962    2.4555   -1.5266 H   0  0  0  0  0  0  0  0  0  0  0  0
   -5.3856    1.9104    0.8835 H   0  0  0  0  0  0  0  0  0  0  0  0
   -3.9909    0.1319    1.8697 H   0  0  0  0  0  0  0  0  0  0  0  0
  1  2  1  0
  1  3  1  0
  3  4  1  0
  4  5  2  0
  5  6  1  0
  6  7  1  0
  7  8  2  0
  8  9  1  0
  9 10  2  0
 10 11  1  0
 11 12  2  0
  5 13  1  0
 13 14  2  0
 13 15  1  0
 15 16  2  0
  1 17  1  0
 17 18  2  0
 18 19  1  0
 19 20  2  0
 20 21  1  0
 21 22  2  0
 15  4  1  0
 22 17  1  0
 12  7  1  0
  1 23  1  1
  2 24  1  0
  2 25  1  0
  2 26  1  0
  3 27  1  0
  6 28  1  0
  8 29  1  0
  9 30  1  0
 11 31  1  0
 12 32  1  0
 18 33  1  0
 19 34  1  0
 20 35  1  0
 21 36  1  0
 22 37  1  0
M  END
$$$$
