
     RDKit          3D

 55 59  0  0  0  0  0  0  0  0999 V2000
    4.6079   -1.6857   -0.4709 C   0  0  1  0  0  0  0  0  0  0  0  0
    4.7567   -1.2112   -1.9458 C   0  0  0  0  0  0  0  0  0  0  0  0
    5.1612    0.2557   -2.1047 C   0  0  0  0  0  0  0  0  0  0  0  0
    6.3332    0.5884   -1.1941 C   0  0  0  0  0  0  0  0  0  0  0  0
    5.9521    0.2950    0.2506 C   0  0  0  0  0  0  0  0  0  0  0  0
    5.6369   -1.1286    0.4402 N   0  0  0  0  0  0  0  0  0  0  0  0
    3.1558   -1.6571    0.1004 C   0  0  0  0  0  0  0  0  0  0  0  0
    2.3108   -2.2760   -0.8082 F   0  0  0  0  0  0  0  0  0  0  0  0
    3.1274   -2.4053    1.2672 F   0  0  0  0  0  0  0  0  0  0  0  0
    2.6045   -0.2580    0.4157 C   0  0  0  0  0  0  0  0  0  0  0  0
    1.1997   -0.3215    0.8228 N   0  0  0  0  0  0  0  0  0  0  0  0
    0.4633    0.8670    1.1426 C   0  0  0  0  0  0  0  0  0  0  0  0
    1.0536    2.1013    1.0783 N   0  0  0  0  0  0  0  0  0  0  0  0
    0.3711    3.2534    1.3748 C   0  0  0  0  0  0  0  0  0  0  0  0
   -0.9810    3.2010    1.7603 C   0  0  0  0  0  0  0  0  0  0  0  0
   -1.5659    1.9424    1.8212 C   0  0  0  0  0  0  0  0  0  0  0  0
   -0.8765    0.8101    1.5257 C   0  0  0  0  0  0  0  0  0  0  0  0
   -1.6703   -0.2668    1.6552 N   0  0  0  0  0  0  0  0  0  0  0  0
   -2.8460    0.3005    2.0366 C   0  0  0  0  0  0  0  0  0  0  0  0
   -4.0911   -0.4889    2.2919 C   0  0  0  0  0  0  0  0  0  0  0  0
   -4.5371   -1.2048    1.0367 C   0  0  0  0  0  0  0  0  0  0  0  0
   -4.5070   -2.6117    1.0139 C   0  0  0  0  0  0  0  0  0  0  0  0
   -4.8448   -3.3133   -0.1444 C   0  0  0  0  0  0  0  0  0  0  0  0
   -5.2087   -2.6230   -1.2990 C   0  0  0  0  0  0  0  0  0  0  0  0
   -5.2421   -1.2283   -1.2983 C   0  0  0  0  0  0  0  0  0  0  0  0
   -4.9201   -0.5033   -0.1380 C   0  0  0  0  0  0  0  0  0  0  0  0
   -4.9655    0.9333   -0.1789 N   0  0  0  0  0  0  0  0  0  0  0  0
   -4.4926    1.7254   -1.1566 C   0  0  0  0  0  0  0  0  0  0  0  0
   -4.7329    3.0237   -0.8915 N   0  0  0  0  0  0  0  0  0  0  0  0
   -5.3830    2.9638    0.2913 C   0  0  0  0  0  0  0  0  0  0  0  0
   -5.5363    1.7002    0.7317 N   0  0  0  0  0  0  0  0  0  0  0  0
   -2.7886    1.6186    2.1404 O   0  0  0  0  0  0  0  0  0  0  0  0
    4.8323   -2.7749   -0.5230 H   0  0  0  0  0  0  0  0  0  0  0  0
    5.5468   -1.8273   -2.4310 H   0  0  0  0  0  0  0  0  0  0  0  0
    3.8234   -1.3931   -2.5193 H   0  0  0  0  0  0  0  0  0  0  0  0
    5.4577    0.4389   -3.1602 H   0  0  0  0  0  0  0  0  0  0  0  0
    4.3076    0.9279   -1.8853 H   0  0  0  0  0  0  0  0  0  0  0  0
    7.2238   -0.0133   -1.4807 H   0  0  0  0  0  0  0  0  0  0  0  0
    6.5890    1.6649   -1.2993 H   0  0  0  0  0  0  0  0  0  0  0  0
    6.8160    0.5558    0.8990 H   0  0  0  0  0  0  0  0  0  0  0  0
    5.1098    0.9451    0.5575 H   0  0  0  0  0  0  0  0  0  0  0  0
    5.3610   -1.2804    1.4381 H   0  0  0  0  0  0  0  0  0  0  0  0
    2.6813    0.3891   -0.4785 H   0  0  0  0  0  0  0  0  0  0  0  0
    3.1804    0.1860    1.2521 H   0  0  0  0  0  0  0  0  0  0  0  0
    0.7163   -1.2462    0.8920 H   0  0  0  0  0  0  0  0  0  0  0  0
    0.8766    4.2075    1.3103 H   0  0  0  0  0  0  0  0  0  0  0  0
   -1.5394    4.0974    1.9960 H   0  0  0  0  0  0  0  0  0  0  0  0
   -4.8999    0.1745    2.6605 H   0  0  0  0  0  0  0  0  0  0  0  0
   -3.8809   -1.2094    3.1114 H   0  0  0  0  0  0  0  0  0  0  0  0
   -4.2101   -3.1708    1.8927 H   0  0  0  0  0  0  0  0  0  0  0  0
   -4.8166   -4.3953   -0.1485 H   0  0  0  0  0  0  0  0  0  0  0  0
   -5.4658   -3.1698   -2.1970 H   0  0  0  0  0  0  0  0  0  0  0  0
   -5.5340   -0.7088   -2.2024 H   0  0  0  0  0  0  0  0  0  0  0  0
   -3.9770    1.3726   -2.0406 H   0  0  0  0  0  0  0  0  0  0  0  0
   -5.7430    3.8333    0.8241 H   0  0  0  0  0  0  0  0  0  0  0  0
  1  2  1  0
  2  3  1  0
  3  4  1  0
  4  5  1  0
  5  6  1  0
  1  7  1  0
  7  8  1  0
  7  9  1  0
  7 10  1  0
 10 11  1  0
 11 12  1  0
 12 13  2  0
 13 14  1  0
 14 15  2  0
 15 16  1  0
 16 17  2  0
 17 18  1  0
 18 19  2  0
 19 20  1  0
 20 21  1  0
 21 22  2  0
 22 23  1  0
 23 24  2  0
 24 25  1  0
 25 26  2  0
 26 27  1  0
 27 28  1  0
 28 29  2  0
 29 30  1  0
 30 31  2  0
 19 32  1  0
  6  1  1  0
 17 12  1  0
 26 21  1  0
 31 27  1  0
 32 16  1  0
  1 33  1  6
  2 34  1  0
  2 35  1  0
  3 36  1  0
  3 37  1  0
  4 38  1  0
  4 39  1  0
  5 40  1  0
  5 41  1  0
  6 42  1  0
 10 43  1  0
 10 44  1  0
 11 45  1  0
 14 46  1  0
 15 47  1  0
 20 48  1  0
 20 49  1  0
 22 50  1  0
 23 51  1  0
 24 52  1  0
 25 53  1  0
 28 54  1  0
 30 55  1  0
M  END
$$$$
