
     RDKit          3D

 27 27  0  0  0  0  0  0  0  0999 V2000
    4.4025    0.5900    0.1256 N   0  0  0  0  0  0  0  0  0  0  0  0
    3.0199    0.2724   -0.2247 C   0  0  0  0  0  0  0  0  0  0  0  0
    2.4708   -0.8670    0.6496 C   0  0  0  0  0  0  0  0  0  0  0  0
    1.0279   -1.2309    0.2755 C   0  0  0  0  0  0  0  0  0  0  0  0
    0.0934   -0.1558    0.6202 N   0  0  0  0  0  0  0  0  0  0  0  0
   -1.2696   -0.1273    0.1519 C   0  0  0  0  0  0  0  0  0  0  0  0
   -1.9252   -1.3245   -0.1994 C   0  0  0  0  0  0  0  0  0  0  0  0
   -3.2716   -1.3182   -0.5668 C   0  0  0  0  0  0  0  0  0  0  0  0
   -3.9861   -0.1223   -0.5846 C   0  0  0  0  0  0  0  0  0  0  0  0
   -3.3529    1.0751   -0.2509 C   0  0  0  0  0  0  0  0  0  0  0  0
   -1.9925    1.0931    0.1024 C   0  0  0  0  0  0  0  0  0  0  0  0
   -1.3590    2.3557    0.3690 N   0  0  0  0  0  4  0  0  0  0  0  0
   -2.0902    3.3927    0.9012 O   0  0  0  0  0  1  0  0  0  0  0  0
   -0.2105    2.5886   -0.0612 O   0  0  0  0  0  0  0  0  0  0  0  0
    4.4411    0.8607    1.1353 H   0  0  0  0  0  0  0  0  0  0  0  0
    4.9880   -0.2682    0.0034 H   0  0  0  0  0  0  0  0  0  0  0  0
    2.3998    1.1853   -0.0973 H   0  0  0  0  0  0  0  0  0  0  0  0
    2.9785   -0.0231   -1.2957 H   0  0  0  0  0  0  0  0  0  0  0  0
    3.1070   -1.7680    0.5109 H   0  0  0  0  0  0  0  0  0  0  0  0
    2.5162   -0.5797    1.7229 H   0  0  0  0  0  0  0  0  0  0  0  0
    0.7415   -2.1512    0.8280 H   0  0  0  0  0  0  0  0  0  0  0  0
    0.9715   -1.4434   -0.8147 H   0  0  0  0  0  0  0  0  0  0  0  0
    0.4235    0.6098    1.2499 H   0  0  0  0  0  0  0  0  0  0  0  0
   -1.4074   -2.2732   -0.1670 H   0  0  0  0  0  0  0  0  0  0  0  0
   -3.7653   -2.2456   -0.8273 H   0  0  0  0  0  0  0  0  0  0  0  0
   -5.0315   -0.1215   -0.8652 H   0  0  0  0  0  0  0  0  0  0  0  0
   -3.9197    1.9965   -0.2939 H   0  0  0  0  0  0  0  0  0  0  0  0
  1  2  1  0
  2  3  1  0
  3  4  1  0
  4  5  1  0
  5  6  1  0
  6  7  2  0
  7  8  1  0
  8  9  2  0
  9 10  1  0
 10 11  2  0
 11 12  1  0
 12 13  1  0
 12 14  2  0
 11  6  1  0
  1 15  1  0
  1 16  1  0
  2 17  1  0
  2 18  1  0
  3 19  1  0
  3 20  1  0
  4 21  1  0
  4 22  1  0
  5 23  1  0
  7 24  1  0
  8 25  1  0
  9 26  1  0
 10 27  1  0
M  CHG  2  12   1  13  -1
M  END
$$$$
