
     RDKit          3D

 39 40  0  0  0  0  0  0  0  0999 V2000
    4.1084    0.0987   -0.3931 C   0  0  1  0  0  0  0  0  0  0  0  0
    4.3148   -0.5059    1.0092 C   0  0  0  0  0  0  0  0  0  0  0  0
    4.7772   -0.7169   -1.4123 N   0  0  0  0  0  0  0  0  0  0  0  0
    2.6168    0.3251   -0.7799 C   0  0  1  0  0  0  0  0  0  0  0  0
    1.7146   -0.9369   -0.6299 C   0  0  0  0  0  0  0  0  0  0  0  0
    0.8263   -0.8814    0.6216 C   0  0  0  0  0  0  0  0  0  0  0  0
   -0.0964    0.3670    0.6368 C   0  0  1  0  0  0  0  0  0  0  0  0
    0.4964    1.5687   -0.1364 C   0  0  0  0  0  0  0  0  0  0  0  0
    2.0258    1.5708   -0.0684 C   0  0  0  0  0  0  0  0  0  0  0  0
   -1.4752    0.0472    0.1139 C   0  0  0  0  0  0  0  0  0  0  0  0
   -1.6003   -0.5902   -0.9677 O   0  0  0  0  0  0  0  0  0  0  0  0
   -2.6342    0.5514    0.7967 N   0  0  0  0  0  0  0  0  0  0  0  0
   -3.9798    0.1265    0.5199 C   0  0  0  0  0  0  0  0  0  0  0  0
   -5.0376    1.0291    0.6966 C   0  0  0  0  0  0  0  0  0  0  0  0
   -6.3488    0.6149    0.4507 C   0  0  0  0  0  0  0  0  0  0  0  0
   -6.5983   -0.6622    0.0581 N   0  0  0  0  0  0  0  0  0  0  0  0
   -5.5959   -1.5659   -0.1030 C   0  0  0  0  0  0  0  0  0  0  0  0
   -4.2699   -1.1926    0.1312 C   0  0  0  0  0  0  0  0  0  0  0  0
    4.6040    1.0963   -0.3928 H   0  0  0  0  0  0  0  0  0  0  0  0
    5.4011   -0.5636    1.2326 H   0  0  0  0  0  0  0  0  0  0  0  0
    3.8458    0.1248    1.7906 H   0  0  0  0  0  0  0  0  0  0  0  0
    3.8977   -1.5317    1.0746 H   0  0  0  0  0  0  0  0  0  0  0  0
    4.4961   -1.7185   -1.3093 H   0  0  0  0  0  0  0  0  0  0  0  0
    5.8099   -0.6727   -1.2506 H   0  0  0  0  0  0  0  0  0  0  0  0
    2.6176    0.5744   -1.8661 H   0  0  0  0  0  0  0  0  0  0  0  0
    1.0517   -1.0139   -1.5197 H   0  0  0  0  0  0  0  0  0  0  0  0
    2.3110   -1.8715   -0.6143 H   0  0  0  0  0  0  0  0  0  0  0  0
    1.4815   -0.8580    1.5190 H   0  0  0  0  0  0  0  0  0  0  0  0
    0.2289   -1.8169    0.6955 H   0  0  0  0  0  0  0  0  0  0  0  0
   -0.1997    0.6704    1.7028 H   0  0  0  0  0  0  0  0  0  0  0  0
    0.1921    1.5395   -1.2071 H   0  0  0  0  0  0  0  0  0  0  0  0
    0.1053    2.5157    0.2956 H   0  0  0  0  0  0  0  0  0  0  0  0
    2.4124    2.4929   -0.5553 H   0  0  0  0  0  0  0  0  0  0  0  0
    2.3295    1.6093    0.9986 H   0  0  0  0  0  0  0  0  0  0  0  0
   -2.4971    1.3320    1.4783 H   0  0  0  0  0  0  0  0  0  0  0  0
   -4.8457    2.0469    1.0122 H   0  0  0  0  0  0  0  0  0  0  0  0
   -7.1692    1.3091    0.5749 H   0  0  0  0  0  0  0  0  0  0  0  0
   -5.8287   -2.5784   -0.4045 H   0  0  0  0  0  0  0  0  0  0  0  0
   -3.4880   -1.9337    0.0340 H   0  0  0  0  0  0  0  0  0  0  0  0
  1  2  1  0
  1  3  1  0
  1  4  1  0
  4  5  1  0
  5  6  1  0
  6  7  1  0
  7  8  1  0
  8  9  1  0
  7 10  1  0
 10 11  2  0
 10 12  1  0
 12 13  1  0
 13 14  2  0
 14 15  1  0
 15 16  2  0
 16 17  1  0
 17 18  2  0
  9  4  1  0
 18 13  1  0
  1 19  1  1
  2 20  1  0
  2 21  1  0
  2 22  1  0
  3 23  1  0
  3 24  1  0
  4 25  1  6
  5 26  1  0
  5 27  1  0
  6 28  1  0
  6 29  1  0
  7 30  1  1
  8 31  1  0
  8 32  1  0
  9 33  1  0
  9 34  1  0
 12 35  1  0
 14 36  1  0
 15 37  1  0
 17 38  1  0
 18 39  1  0
M  END
$$$$
