
     RDKit          3D

 49 52  0  0  0  0  0  0  0  0999 V2000
   -1.4778    3.2729   -2.1746 C   0  0  0  0  0  0  0  0  0  0  0  0
   -2.1298    3.1267   -0.8088 C   0  0  0  0  0  0  0  0  0  0  0  0
   -1.1548    2.7080    0.1228 O   0  0  0  0  0  0  0  0  0  0  0  0
   -1.7598    2.4186    1.3676 C   0  0  0  0  0  0  0  0  0  0  0  0
   -2.4392    1.1230    1.3274 N   0  0  0  0  0  0  0  0  0  0  0  0
   -3.6829    0.9568    1.6694 O   0  0  0  0  0  0  0  0  0  0  0  0
   -4.0298   -0.2940    1.4947 C   0  0  0  0  0  0  0  0  0  0  0  0
   -5.1707   -0.7516    1.7672 O   0  0  0  0  0  0  0  0  0  0  0  0
   -2.9566   -1.0169    1.0041 C   0  0  0  0  0  0  0  0  0  0  0  0
   -1.9415   -0.0671    0.9092 C   0  0  0  0  0  0  0  0  0  0  0  0
   -0.5842   -0.2635    0.3579 C   0  0  0  0  0  0  0  0  0  0  0  0
   -0.3794   -1.0201   -0.8027 C   0  0  0  0  0  0  0  0  0  0  0  0
    0.9184   -1.1532   -1.2919 C   0  0  0  0  0  0  0  0  0  0  0  0
    1.9495   -0.5449   -0.6523 N   0  0  0  0  0  0  0  0  0  0  0  0
    1.7375    0.2031    0.4654 C   0  0  0  0  0  0  0  0  0  0  0  0
    2.8013    0.8234    1.1289 O   0  0  0  0  0  0  0  0  0  0  0  0
    4.0662    1.0358    0.5649 C   0  0  0  0  0  0  0  0  0  0  0  0
    5.1994    0.7522    1.3376 C   0  0  0  0  0  0  0  0  0  0  0  0
    6.4803    0.9443    0.8128 C   0  0  0  0  0  0  0  0  0  0  0  0
    6.6379    1.4344   -0.4854 C   0  0  0  0  0  0  0  0  0  0  0  0
    5.5150    1.7462   -1.2563 C   0  0  0  0  0  0  0  0  0  0  0  0
    4.2258    1.5627   -0.7341 C   0  0  0  0  0  0  0  0  0  0  0  0
    3.1114    1.9288   -1.4878 O   0  0  0  0  0  0  0  0  0  0  0  0
    0.4796    0.3306    0.9617 N   0  0  0  0  0  0  0  0  0  0  0  0
   -2.9026   -2.4713    0.7353 C   0  0  0  0  0  0  0  0  0  0  0  0
   -1.7788   -3.2267    1.1136 C   0  0  0  0  0  0  0  0  0  0  0  0
   -1.7331   -4.6006    0.8587 C   0  0  0  0  0  0  0  0  0  0  0  0
   -2.8098   -5.2331    0.2315 C   0  0  0  0  0  0  0  0  0  0  0  0
   -2.7638   -6.5656   -0.0146 F   0  0  0  0  0  0  0  0  0  0  0  0
   -3.9352   -4.4921   -0.1390 C   0  0  0  0  0  0  0  0  0  0  0  0
   -3.9846   -3.1177    0.1138 C   0  0  0  0  0  0  0  0  0  0  0  0
   -0.6622    4.0254   -2.1282 H   0  0  0  0  0  0  0  0  0  0  0  0
   -2.2327    3.6043   -2.9185 H   0  0  0  0  0  0  0  0  0  0  0  0
   -1.0554    2.2977   -2.4987 H   0  0  0  0  0  0  0  0  0  0  0  0
   -2.9537    2.3824   -0.8989 H   0  0  0  0  0  0  0  0  0  0  0  0
   -2.5516    4.1129   -0.5113 H   0  0  0  0  0  0  0  0  0  0  0  0
   -0.9665    2.3798    2.1428 H   0  0  0  0  0  0  0  0  0  0  0  0
   -2.4691    3.2186    1.6831 H   0  0  0  0  0  0  0  0  0  0  0  0
   -1.2053   -1.4854   -1.3257 H   0  0  0  0  0  0  0  0  0  0  0  0
    1.1062   -1.7353   -2.1840 H   0  0  0  0  0  0  0  0  0  0  0  0
    5.0855    0.3679    2.3434 H   0  0  0  0  0  0  0  0  0  0  0  0
    7.3509    0.7120    1.4124 H   0  0  0  0  0  0  0  0  0  0  0  0
    7.6305    1.5822   -0.8908 H   0  0  0  0  0  0  0  0  0  0  0  0
    5.6474    2.1435   -2.2546 H   0  0  0  0  0  0  0  0  0  0  0  0
    3.2035    2.3159   -2.4196 H   0  0  0  0  0  0  0  0  0  0  0  0
   -0.9431   -2.7575    1.6171 H   0  0  0  0  0  0  0  0  0  0  0  0
   -0.8638   -5.1748    1.1520 H   0  0  0  0  0  0  0  0  0  0  0  0
   -4.7696   -4.9814   -0.6248 H   0  0  0  0  0  0  0  0  0  0  0  0
   -4.8591   -2.5574   -0.1923 H   0  0  0  0  0  0  0  0  0  0  0  0
  1  2  1  0
  2  3  1  0
  3  4  1  0
  4  5  1  0
  5  6  1  0
  6  7  1  0
  7  8  2  0
  7  9  1  0
  9 10  2  0
 10 11  1  0
 11 12  2  0
 12 13  1  0
 13 14  2  0
 14 15  1  0
 15 16  1  0
 16 17  1  0
 17 18  2  0
 18 19  1  0
 19 20  2  0
 20 21  1  0
 21 22  2  0
 22 23  1  0
 15 24  2  0
  9 25  1  0
 25 26  2  0
 26 27  1  0
 27 28  2  0
 28 29  1  0
 28 30  1  0
 30 31  2  0
 10  5  1  0
 24 11  1  0
 31 25  1  0
 22 17  1  0
  1 32  1  0
  1 33  1  0
  1 34  1  0
  2 35  1  0
  2 36  1  0
  4 37  1  0
  4 38  1  0
 12 39  1  0
 13 40  1  0
 18 41  1  0
 19 42  1  0
 20 43  1  0
 21 44  1  0
 23 45  1  0
 26 46  1  0
 27 47  1  0
 30 48  1  0
 31 49  1  0
M  END
$$$$
