
     RDKit          3D

 46 47  0  0  0  0  0  0  0  0999 V2000
    5.9243   -0.5569    0.1667 C   0  0  2  0  0  0  0  0  0  0  0  0
    7.2398   -0.7790    0.9249 C   0  0  0  0  0  0  0  0  0  0  0  0
    6.0046    0.6545   -0.7884 C   0  0  0  0  0  0  0  0  0  0  0  0
    6.1266    2.0003   -0.0695 C   0  0  0  0  0  0  0  0  0  0  0  0
    4.8077   -0.4132    1.1072 N   0  0  0  0  0  0  0  0  0  0  0  0
    3.4433   -0.5760    0.7053 C   0  0  0  0  0  0  0  0  0  0  0  0
    3.0632   -0.9196   -0.5449 N   0  0  0  0  0  0  0  0  0  0  0  0
    1.7109   -1.0080   -0.6528 C   0  0  0  0  0  0  0  0  0  0  0  0
    1.0107   -0.7364    0.5230 C   0  0  0  0  0  0  0  0  0  0  0  0
    2.1283   -0.3673    1.7296 S   0  0  0  0  0  0  0  0  0  0  0  0
   -0.4519   -0.7389    0.7040 C   0  0  0  0  0  0  0  0  0  0  0  0
   -0.9321   -0.3509    1.8035 O   0  0  0  0  0  0  0  0  0  0  0  0
   -1.3260   -1.2074   -0.3363 N   0  0  0  0  0  0  0  0  0  0  0  0
   -2.7461   -0.9688   -0.3362 C   0  0  0  0  0  0  0  0  0  0  0  0
   -3.6439   -1.9716   -0.7663 C   0  0  0  0  0  0  0  0  0  0  0  0
   -3.1496   -3.3261   -1.1971 C   0  0  0  0  0  0  0  0  0  0  0  0
   -5.0201   -1.6990   -0.7955 C   0  0  0  0  0  0  0  0  0  0  0  0
   -5.5079   -0.4522   -0.4015 C   0  0  0  0  0  0  0  0  0  0  0  0
   -4.6271    0.5587    0.0139 C   0  0  0  0  0  0  0  0  0  0  0  0
   -3.2487    0.2883    0.0458 C   0  0  0  0  0  0  0  0  0  0  0  0
   -5.1303    1.8904    0.4310 C   0  0  0  0  0  0  0  0  0  0  0  0
   -4.4364    2.5958    1.2142 O   0  0  0  0  0  0  0  0  0  0  0  0
   -6.3832    2.3981   -0.0537 N   0  0  0  0  0  0  0  0  0  0  0  0
   -6.9519    3.6395    0.4567 C   0  0  0  0  0  0  0  0  0  0  0  0
    5.7548   -1.4671   -0.4507 H   0  0  0  0  0  0  0  0  0  0  0  0
    7.1795   -1.7234    1.5065 H   0  0  0  0  0  0  0  0  0  0  0  0
    7.4405    0.0521    1.6327 H   0  0  0  0  0  0  0  0  0  0  0  0
    8.0874   -0.8630    0.2119 H   0  0  0  0  0  0  0  0  0  0  0  0
    6.8722    0.5307   -1.4726 H   0  0  0  0  0  0  0  0  0  0  0  0
    5.0934    0.6783   -1.4233 H   0  0  0  0  0  0  0  0  0  0  0  0
    7.0821    2.0636    0.4906 H   0  0  0  0  0  0  0  0  0  0  0  0
    5.2762    2.1536    0.6276 H   0  0  0  0  0  0  0  0  0  0  0  0
    6.1132    2.8189   -0.8195 H   0  0  0  0  0  0  0  0  0  0  0  0
    5.0003   -0.2060    2.1137 H   0  0  0  0  0  0  0  0  0  0  0  0
    1.2378   -1.2590   -1.5916 H   0  0  0  0  0  0  0  0  0  0  0  0
   -0.9262   -1.8145   -1.0849 H   0  0  0  0  0  0  0  0  0  0  0  0
   -2.6404   -3.2414   -2.1798 H   0  0  0  0  0  0  0  0  0  0  0  0
   -2.4378   -3.7292   -0.4460 H   0  0  0  0  0  0  0  0  0  0  0  0
   -3.9843   -4.0526   -1.2955 H   0  0  0  0  0  0  0  0  0  0  0  0
   -5.7233   -2.4578   -1.1162 H   0  0  0  0  0  0  0  0  0  0  0  0
   -6.5778   -0.2935   -0.4060 H   0  0  0  0  0  0  0  0  0  0  0  0
   -2.5580    1.0702    0.3363 H   0  0  0  0  0  0  0  0  0  0  0  0
   -6.8893    1.9054   -0.8226 H   0  0  0  0  0  0  0  0  0  0  0  0
   -6.2492    4.4798    0.2749 H   0  0  0  0  0  0  0  0  0  0  0  0
   -7.1446    3.5445    1.5460 H   0  0  0  0  0  0  0  0  0  0  0  0
   -7.9107    3.8564   -0.0599 H   0  0  0  0  0  0  0  0  0  0  0  0
  1  2  1  0
  1  3  1  0
  3  4  1  0
  1  5  1  0
  5  6  1  0
  6  7  2  0
  7  8  1  0
  8  9  2  0
  9 10  1  0
  9 11  1  0
 11 12  2  0
 11 13  1  0
 13 14  1  0
 14 15  2  0
 15 16  1  0
 15 17  1  0
 17 18  2  0
 18 19  1  0
 19 20  2  0
 19 21  1  0
 21 22  2  0
 21 23  1  0
 23 24  1  0
 10  6  1  0
 20 14  1  0
  1 25  1  6
  2 26  1  0
  2 27  1  0
  2 28  1  0
  3 29  1  0
  3 30  1  0
  4 31  1  0
  4 32  1  0
  4 33  1  0
  5 34  1  0
  8 35  1  0
 13 36  1  0
 16 37  1  0
 16 38  1  0
 16 39  1  0
 17 40  1  0
 18 41  1  0
 20 42  1  0
 23 43  1  0
 24 44  1  0
 24 45  1  0
 24 46  1  0
M  END
$$$$
