
     RDKit          3D

 24 25  0  0  0  0  0  0  0  0999 V2000
   -1.7233   -0.4923    0.6579 C   0  0  1  0  0  0  0  0  0  0  0  0
   -2.9833   -0.9709    0.2668 O   0  0  0  0  0  0  0  0  0  0  0  0
   -0.6926   -1.5432    0.3886 C   0  0  0  0  0  0  0  0  0  0  0  0
   -0.8281   -2.8618    0.6185 N   0  0  0  0  0  0  0  0  0  0  0  0
    0.3401   -3.3867    0.2655 N   0  0  0  0  0  0  0  0  0  0  0  0
    1.1627   -2.4339   -0.1530 N   0  0  0  0  0  0  0  0  0  0  0  0
    0.5410   -1.2728   -0.0542 N   0  0  0  0  0  0  0  0  0  0  0  0
    1.0321    0.0302   -0.5127 C   0  0  2  0  0  0  0  0  0  0  0  0
    2.4929    0.2475   -0.0735 C   0  0  0  0  0  0  0  0  0  0  0  0
    3.3477   -0.6602   -0.7153 O   0  0  0  0  0  0  0  0  0  0  0  0
    0.1228    1.1609    0.0369 C   0  0  1  0  0  0  0  0  0  0  0  0
    0.3996    2.3507   -0.6583 O   0  0  0  0  0  0  0  0  0  0  0  0
   -1.3738    0.7959   -0.1264 C   0  0  2  0  0  0  0  0  0  0  0  0
   -2.1625    1.8598    0.3424 O   0  0  0  0  0  0  0  0  0  0  0  0
   -1.7096   -0.2809    1.7528 H   0  0  0  0  0  0  0  0  0  0  0  0
   -3.6586   -0.4561    0.7810 H   0  0  0  0  0  0  0  0  0  0  0  0
    0.9834    0.0490   -1.6244 H   0  0  0  0  0  0  0  0  0  0  0  0
    2.8162    1.2894   -0.2990 H   0  0  0  0  0  0  0  0  0  0  0  0
    2.5772    0.1005    1.0246 H   0  0  0  0  0  0  0  0  0  0  0  0
    3.4463   -0.3447   -1.6514 H   0  0  0  0  0  0  0  0  0  0  0  0
    0.3374    1.2951    1.1251 H   0  0  0  0  0  0  0  0  0  0  0  0
    0.1430    3.1021   -0.0623 H   0  0  0  0  0  0  0  0  0  0  0  0
   -1.5699    0.6286   -1.2133 H   0  0  0  0  0  0  0  0  0  0  0  0
   -3.0406    1.7938   -0.1162 H   0  0  0  0  0  0  0  0  0  0  0  0
  1  2  1  0
  1  3  1  0
  3  4  2  0
  4  5  1  0
  5  6  2  0
  6  7  1  0
  7  8  1  0
  8  9  1  0
  9 10  1  0
  8 11  1  0
 11 12  1  0
 11 13  1  0
 13 14  1  0
 13  1  1  0
  7  3  1  0
  1 15  1  1
  2 16  1  0
  8 17  1  6
  9 18  1  0
  9 19  1  0
 10 20  1  0
 11 21  1  1
 12 22  1  0
 13 23  1  6
 14 24  1  0
M  END
$$$$
