
     RDKit          3D

 62 65  0  0  0  0  0  0  0  0999 V2000
   -4.9329   -6.8076   -1.0286 O   0  0  0  0  0  0  0  0  0  0  0  0
   -4.8563   -5.4415   -0.7668 C   0  0  0  0  0  0  0  0  0  0  0  0
   -5.1088   -4.5261   -1.7937 C   0  0  0  0  0  0  0  0  0  0  0  0
   -5.0355   -3.1521   -1.5454 C   0  0  0  0  0  0  0  0  0  0  0  0
   -4.7183   -2.6807   -0.2609 C   0  0  0  0  0  0  0  0  0  0  0  0
   -4.6034   -1.2025   -0.0012 C   0  0  0  0  0  0  0  0  0  0  0  0
   -3.1746   -0.7189   -0.2642 C   0  0  0  0  0  0  0  0  0  0  0  0
   -3.0544    0.7168   -0.0116 N   0  0  0  0  0  0  0  0  0  0  0  0
   -1.8109    1.4060   -0.1793 C   0  0  0  0  0  0  0  0  0  0  0  0
   -0.7012    0.7393   -0.5904 N   0  0  0  0  0  0  0  0  0  0  0  0
    0.4722    1.4005   -0.7421 C   0  0  0  0  0  0  0  0  0  0  0  0
    1.9323    0.5179   -1.2772 S   0  0  0  0  0  0  0  0  0  0  0  0
    2.4435    0.1003    0.4257 C   0  0  0  0  0  0  0  0  0  0  0  0
    3.7199   -0.7447    0.4247 C   0  0  0  0  0  0  0  0  0  0  0  0
    3.4694   -2.1680   -0.0917 C   0  0  0  0  0  0  0  0  0  0  0  0
    4.7386   -2.9758   -0.0477 C   0  0  0  0  0  0  0  0  0  0  0  0
    5.6249   -2.9621   -1.1374 C   0  0  0  0  0  0  0  0  0  0  0  0
    6.8196   -3.6867   -1.0832 C   0  0  0  0  0  0  0  0  0  0  0  0
    7.1427   -4.4219    0.0621 C   0  0  0  0  0  0  0  0  0  0  0  0
    8.6428   -5.3287    0.1291 Cl  0  0  0  0  0  0  0  0  0  0  0  0
    6.2711   -4.4285    1.1561 C   0  0  0  0  0  0  0  0  0  0  0  0
    5.0757   -3.7048    1.1047 C   0  0  0  0  0  0  0  0  0  0  0  0
    0.5391    2.7304   -0.4856 N   0  0  0  0  0  0  0  0  0  0  0  0
   -0.5646    3.4098   -0.0734 C   0  0  0  0  0  0  0  0  0  0  0  0
   -1.7377    2.7373    0.0771 N   0  0  0  0  0  0  0  0  0  0  0  0
   -0.4918    4.8262    0.2020 N   0  0  0  0  0  0  0  0  0  0  0  0
    0.8164    5.4982    0.2406 C   0  0  0  0  0  0  0  0  0  0  0  0
    0.6751    6.9754   -0.1330 C   0  0  0  0  0  0  0  0  0  0  0  0
   -0.3622    7.6116    0.6850 N   0  0  0  0  0  0  0  0  0  0  0  0
   -1.6626    6.9884    0.4193 C   0  0  0  0  0  0  0  0  0  0  0  0
   -1.6374    5.5118    0.8203 C   0  0  0  0  0  0  0  0  0  0  0  0
   -4.4526   -3.6030    0.7645 C   0  0  0  0  0  0  0  0  0  0  0  0
   -4.5264   -4.9766    0.5136 C   0  0  0  0  0  0  0  0  0  0  0  0
   -4.7548   -7.4958   -0.3064 H   0  0  0  0  0  0  0  0  0  0  0  0
   -5.3583   -4.8800   -2.7860 H   0  0  0  0  0  0  0  0  0  0  0  0
   -5.2241   -2.4560   -2.3533 H   0  0  0  0  0  0  0  0  0  0  0  0
   -5.3103   -0.6474   -0.6563 H   0  0  0  0  0  0  0  0  0  0  0  0
   -4.8829   -0.9811    1.0523 H   0  0  0  0  0  0  0  0  0  0  0  0
   -2.9024   -0.9270   -1.3222 H   0  0  0  0  0  0  0  0  0  0  0  0
   -2.4708   -1.2662    0.4007 H   0  0  0  0  0  0  0  0  0  0  0  0
   -3.8869    1.2656    0.3038 H   0  0  0  0  0  0  0  0  0  0  0  0
    2.6409    1.0440    0.9783 H   0  0  0  0  0  0  0  0  0  0  0  0
    1.6268   -0.4452    0.9468 H   0  0  0  0  0  0  0  0  0  0  0  0
    4.4950   -0.2445   -0.1968 H   0  0  0  0  0  0  0  0  0  0  0  0
    4.1027   -0.8013    1.4675 H   0  0  0  0  0  0  0  0  0  0  0  0
    3.0873   -2.1344   -1.1349 H   0  0  0  0  0  0  0  0  0  0  0  0
    2.6891   -2.6605    0.5294 H   0  0  0  0  0  0  0  0  0  0  0  0
    5.3912   -2.3896   -2.0266 H   0  0  0  0  0  0  0  0  0  0  0  0
    7.4941   -3.6732   -1.9298 H   0  0  0  0  0  0  0  0  0  0  0  0
    6.5201   -4.9907    2.0471 H   0  0  0  0  0  0  0  0  0  0  0  0
    4.4143   -3.7111    1.9623 H   0  0  0  0  0  0  0  0  0  0  0  0
    1.2409    5.4114    1.2642 H   0  0  0  0  0  0  0  0  0  0  0  0
    1.5271    5.0320   -0.4751 H   0  0  0  0  0  0  0  0  0  0  0  0
    1.6462    7.4860    0.0455 H   0  0  0  0  0  0  0  0  0  0  0  0
    0.4338    7.0712   -1.2163 H   0  0  0  0  0  0  0  0  0  0  0  0
   -0.4255    8.6151    0.3937 H   0  0  0  0  0  0  0  0  0  0  0  0
   -2.4457    7.5087    1.0122 H   0  0  0  0  0  0  0  0  0  0  0  0
   -1.9307    7.0843   -0.6577 H   0  0  0  0  0  0  0  0  0  0  0  0
   -2.5977    5.0547    0.4990 H   0  0  0  0  0  0  0  0  0  0  0  0
   -1.5598    5.4269    1.9259 H   0  0  0  0  0  0  0  0  0  0  0  0
   -4.1870   -3.2582    1.7562 H   0  0  0  0  0  0  0  0  0  0  0  0
   -4.3238   -5.6779    1.3130 H   0  0  0  0  0  0  0  0  0  0  0  0
  1  2  1  0
  2  3  2  0
  3  4  1  0
  4  5  2  0
  5  6  1  0
  6  7  1  0
  7  8  1  0
  8  9  1  0
  9 10  2  0
 10 11  1  0
 11 12  1  0
 12 13  1  0
 13 14  1  0
 14 15  1  0
 15 16  1  0
 16 17  2  0
 17 18  1  0
 18 19  2  0
 19 20  1  0
 19 21  1  0
 21 22  2  0
 11 23  2  0
 23 24  1  0
 24 25  2  0
 24 26  1  0
 26 27  1  0
 27 28  1  0
 28 29  1  0
 29 30  1  0
 30 31  1  0
  5 32  1  0
 32 33  2  0
 33  2  1  0
 25  9  1  0
 31 26  1  0
 22 16  1  0
  1 34  1  0
  3 35  1  0
  4 36  1  0
  6 37  1  0
  6 38  1  0
  7 39  1  0
  7 40  1  0
  8 41  1  0
 13 42  1  0
 13 43  1  0
 14 44  1  0
 14 45  1  0
 15 46  1  0
 15 47  1  0
 17 48  1  0
 18 49  1  0
 21 50  1  0
 22 51  1  0
 27 52  1  0
 27 53  1  0
 28 54  1  0
 28 55  1  0
 29 56  1  0
 30 57  1  0
 30 58  1  0
 31 59  1  0
 31 60  1  0
 32 61  1  0
 33 62  1  0
M  END
$$$$
