
     RDKit          3D

 94 97  0  0  0  0  0  0  0  0999 V2000
    5.7402   -4.6951   -1.1495 C   0  0  0  0  0  0  0  0  0  0  0  0
    4.3347   -4.2601   -0.6979 C   0  0  0  0  0  0  0  0  0  0  0  0
    3.3377   -4.4784   -1.8492 C   0  0  0  0  0  0  0  0  0  0  0  0
    3.9126   -5.1019    0.5199 C   0  0  0  0  0  0  0  0  0  0  0  0
    4.3747   -2.5092   -0.2564 S   0  0  0  0  0  6  0  0  0  0  0  0
    4.9697   -1.7407   -1.4032 O   0  0  0  0  0  0  0  0  0  0  0  0
    5.2442   -2.3239    0.9564 O   0  0  0  0  0  0  0  0  0  0  0  0
    2.7225   -1.8879    0.0840 C   0  0  0  0  0  0  0  0  0  0  0  0
    2.7087   -0.5582    0.8800 C   0  0  1  0  0  0  0  0  0  0  0  0
    3.2738    0.6463    0.0845 C   0  0  0  0  0  0  0  0  0  0  0  0
    2.3648    1.1472   -1.0154 C   0  0  0  0  0  0  0  0  0  0  0  0
    1.4955    2.2240   -0.7717 C   0  0  0  0  0  0  0  0  0  0  0  0
    0.6670    2.7095   -1.7873 C   0  0  0  0  0  0  0  0  0  0  0  0
    0.7062    2.1307   -3.0575 C   0  0  0  0  0  0  0  0  0  0  0  0
    1.5667    1.0592   -3.3108 C   0  0  0  0  0  0  0  0  0  0  0  0
    2.3964    0.5706   -2.2967 C   0  0  0  0  0  0  0  0  0  0  0  0
    1.3259   -0.2574    1.4227 C   0  0  0  0  0  0  0  0  0  0  0  0
    0.3259   -0.8926    0.9899 O   0  0  0  0  0  0  0  0  0  0  0  0
    1.1444    0.7594    2.4206 N   0  0  0  0  0  0  0  0  0  0  0  0
   -0.1732    1.0479    3.0029 C   0  0  1  0  0  0  0  0  0  0  0  0
   -0.0564    2.0136    4.1961 C   0  0  0  0  0  0  0  0  0  0  0  0
    0.6997    1.3873    5.3303 C   0  0  0  0  0  0  0  0  0  0  0  0
    0.2132    0.4606    6.2246 C   0  0  0  0  0  0  0  0  0  0  0  0
    1.2055    0.0898    7.0583 N   0  0  0  0  0  0  0  0  0  0  0  0
    2.2758    0.8011    6.6423 C   0  0  0  0  0  0  0  0  0  0  0  0
    1.9996    1.5946    5.5907 N   0  0  0  0  0  0  0  0  0  0  0  0
   -1.0760    1.6301    1.9471 C   0  0  0  0  0  0  0  0  0  0  0  0
   -0.8066    2.7539    1.4434 O   0  0  0  0  0  0  0  0  0  0  0  0
   -2.2181    0.8931    1.4896 N   0  0  0  0  0  0  0  0  0  0  0  0
   -2.6707    0.9402    0.0931 C   0  0  1  0  0  0  0  0  0  0  0  0
   -2.5481   -0.4767   -0.5452 C   0  0  0  0  0  0  0  0  0  0  0  0
   -1.6015   -0.5147   -1.7753 C   0  0  0  0  0  0  0  0  0  0  0  0
   -2.2020    0.2271   -2.9924 C   0  0  0  0  0  0  0  0  0  0  0  0
   -3.4161   -0.5026   -3.5998 C   0  0  0  0  0  0  0  0  0  0  0  0
   -3.3041   -2.0392   -3.5405 C   0  0  0  0  0  0  0  0  0  0  0  0
   -1.8511   -2.5060   -3.4287 C   0  0  0  0  0  0  0  0  0  0  0  0
   -1.1866   -1.9698   -2.1472 C   0  0  0  0  0  0  0  0  0  0  0  0
   -4.1253    1.4823   -0.0079 C   0  0  1  0  0  0  0  0  0  0  0  0
   -5.0182    0.6786    0.7262 O   0  0  0  0  0  0  0  0  0  0  0  0
   -4.2882    2.9783    0.3717 C   0  0  1  0  0  0  0  0  0  0  0  0
   -3.8663    3.1969    1.6921 O   0  0  0  0  0  0  0  0  0  0  0  0
   -3.4893    3.8934   -0.5815 C   0  0  0  0  0  0  0  0  0  0  0  0
   -4.1361    5.2357   -0.8924 C   0  0  0  0  0  0  0  0  0  0  0  0
   -4.1206    4.1374   -1.9440 C   0  0  0  0  0  0  0  0  0  0  0  0
    6.0637   -4.1168   -2.0414 H   0  0  0  0  0  0  0  0  0  0  0  0
    6.4802   -4.5287   -0.3373 H   0  0  0  0  0  0  0  0  0  0  0  0
    5.7509   -5.7743   -1.4153 H   0  0  0  0  0  0  0  0  0  0  0  0
    2.3060   -4.2132   -1.5346 H   0  0  0  0  0  0  0  0  0  0  0  0
    3.3364   -5.5430   -2.1684 H   0  0  0  0  0  0  0  0  0  0  0  0
    3.6087   -3.8507   -2.7252 H   0  0  0  0  0  0  0  0  0  0  0  0
    3.9314   -6.1847    0.2696 H   0  0  0  0  0  0  0  0  0  0  0  0
    4.6033   -4.9315    1.3732 H   0  0  0  0  0  0  0  0  0  0  0  0
    2.8830   -4.8485    0.8455 H   0  0  0  0  0  0  0  0  0  0  0  0
    2.1643   -1.7818   -0.8681 H   0  0  0  0  0  0  0  0  0  0  0  0
    2.1994   -2.6602    0.6840 H   0  0  0  0  0  0  0  0  0  0  0  0
    3.3637   -0.7022    1.7667 H   0  0  0  0  0  0  0  0  0  0  0  0
    3.4719    1.4767    0.7971 H   0  0  0  0  0  0  0  0  0  0  0  0
    4.2678    0.4011   -0.3387 H   0  0  0  0  0  0  0  0  0  0  0  0
    1.4736    2.6974    0.2006 H   0  0  0  0  0  0  0  0  0  0  0  0
   -0.0007    3.5382   -1.5911 H   0  0  0  0  0  0  0  0  0  0  0  0
    0.0660    2.5091   -3.8438 H   0  0  0  0  0  0  0  0  0  0  0  0
    1.5933    0.6092   -4.2947 H   0  0  0  0  0  0  0  0  0  0  0  0
    3.0685   -0.2476   -2.5160 H   0  0  0  0  0  0  0  0  0  0  0  0
    1.9830    1.2928    2.7433 H   0  0  0  0  0  0  0  0  0  0  0  0
   -0.6146    0.0956    3.3733 H   0  0  0  0  0  0  0  0  0  0  0  0
   -1.0729    2.2847    4.5569 H   0  0  0  0  0  0  0  0  0  0  0  0
    0.4533    2.9512    3.8834 H   0  0  0  0  0  0  0  0  0  0  0  0
   -0.7955    0.0711    6.2631 H   0  0  0  0  0  0  0  0  0  0  0  0
    3.2528    0.7342    7.1022 H   0  0  0  0  0  0  0  0  0  0  0  0
    2.6596    2.2264    5.0852 H   0  0  0  0  0  0  0  0  0  0  0  0
   -2.6367    0.1801    2.1291 H   0  0  0  0  0  0  0  0  0  0  0  0
   -2.0144    1.6354   -0.4696 H   0  0  0  0  0  0  0  0  0  0  0  0
   -2.1611   -1.1837    0.2196 H   0  0  0  0  0  0  0  0  0  0  0  0
   -3.5439   -0.8800   -0.8248 H   0  0  0  0  0  0  0  0  0  0  0  0
   -0.6689    0.0167   -1.4841 H   0  0  0  0  0  0  0  0  0  0  0  0
   -2.4871    1.2672   -2.7282 H   0  0  0  0  0  0  0  0  0  0  0  0
   -1.4154    0.3064   -3.7740 H   0  0  0  0  0  0  0  0  0  0  0  0
   -4.3418   -0.1872   -3.0718 H   0  0  0  0  0  0  0  0  0  0  0  0
   -3.5231   -0.1826   -4.6592 H   0  0  0  0  0  0  0  0  0  0  0  0
   -3.8741   -2.4240   -2.6668 H   0  0  0  0  0  0  0  0  0  0  0  0
   -3.7631   -2.4790   -4.4523 H   0  0  0  0  0  0  0  0  0  0  0  0
   -1.8166   -3.6169   -3.4263 H   0  0  0  0  0  0  0  0  0  0  0  0
   -1.2846   -2.1553   -4.3195 H   0  0  0  0  0  0  0  0  0  0  0  0
   -0.0846   -2.0058   -2.2956 H   0  0  0  0  0  0  0  0  0  0  0  0
   -1.4061   -2.6720   -1.3139 H   0  0  0  0  0  0  0  0  0  0  0  0
   -4.4307    1.3975   -1.0735 H   0  0  0  0  0  0  0  0  0  0  0  0
   -4.8658    0.8506    1.6909 H   0  0  0  0  0  0  0  0  0  0  0  0
   -5.3786    3.2072    0.3009 H   0  0  0  0  0  0  0  0  0  0  0  0
   -4.2171    4.0857    1.9619 H   0  0  0  0  0  0  0  0  0  0  0  0
   -2.3801    3.9199   -0.5476 H   0  0  0  0  0  0  0  0  0  0  0  0
   -3.4183    6.0583   -1.0954 H   0  0  0  0  0  0  0  0  0  0  0  0
   -5.1380    5.4197   -0.4490 H   0  0  0  0  0  0  0  0  0  0  0  0
   -5.1099    3.6619   -2.1160 H   0  0  0  0  0  0  0  0  0  0  0  0
   -3.3880    4.3011   -2.7622 H   0  0  0  0  0  0  0  0  0  0  0  0
  1  2  1  0
  2  3  1  0
  2  4  1  0
  2  5  1  0
  5  6  2  0
  5  7  2  0
  5  8  1  0
  8  9  1  0
  9 10  1  0
 10 11  1  0
 11 12  2  0
 12 13  1  0
 13 14  2  0
 14 15  1  0
 15 16  2  0
  9 17  1  0
 17 18  2  0
 17 19  1  0
 19 20  1  0
 20 21  1  0
 21 22  1  0
 22 23  2  0
 23 24  1  0
 24 25  2  0
 25 26  1  0
 20 27  1  0
 27 28  2  0
 27 29  1  0
 29 30  1  0
 30 31  1  0
 31 32  1  0
 32 33  1  0
 33 34  1  0
 34 35  1  0
 35 36  1  0
 36 37  1  0
 30 38  1  0
 38 39  1  0
 38 40  1  0
 40 41  1  0
 40 42  1  0
 42 43  1  0
 43 44  1  0
 16 11  1  0
 26 22  1  0
 37 32  1  0
 44 42  1  0
  1 45  1  0
  1 46  1  0
  1 47  1  0
  3 48  1  0
  3 49  1  0
  3 50  1  0
  4 51  1  0
  4 52  1  0
  4 53  1  0
  8 54  1  0
  8 55  1  0
  9 56  1  1
 10 57  1  0
 10 58  1  0
 12 59  1  0
 13 60  1  0
 14 61  1  0
 15 62  1  0
 16 63  1  0
 19 64  1  0
 20 65  1  1
 21 66  1  0
 21 67  1  0
 23 68  1  0
 25 69  1  0
 26 70  1  0
 29 71  1  0
 30 72  1  6
 31 73  1  0
 31 74  1  0
 32 75  1  0
 33 76  1  0
 33 77  1  0
 34 78  1  0
 34 79  1  0
 35 80  1  0
 35 81  1  0
 36 82  1  0
 36 83  1  0
 37 84  1  0
 37 85  1  0
 38 86  1  6
 39 87  1  0
 40 88  1  1
 41 89  1  0
 42 90  1  0
 43 91  1  0
 43 92  1  0
 44 93  1  0
 44 94  1  0
M  END
$$$$
