
     RDKit          3D

 31 33  0  0  0  0  0  0  0  0999 V2000
    5.5111   -0.1923    0.1041 N   0  0  0  0  0  0  0  0  0  0  0  0
    4.4118    0.3661   -0.6255 C   0  0  0  0  0  0  0  0  0  0  0  0
    4.6281    0.9241   -1.7799 N   0  0  0  0  0  4  0  0  0  0  0  0
    3.0422    0.3097   -0.0561 C   0  0  0  0  0  0  0  0  0  0  0  0
    2.8456    0.4670    1.3434 C   0  0  0  0  0  0  0  0  0  0  0  0
    1.5545    0.4116    1.9002 C   0  0  0  0  0  0  0  0  0  0  0  0
    0.4880    0.1947    1.0343 C   0  0  0  0  0  0  0  0  0  0  0  0
   -0.8149    0.1044    1.3263 N   0  0  0  0  0  0  0  0  0  0  0  0
   -1.4090   -0.1063    0.1214 C   0  0  0  0  0  0  0  0  0  0  0  0
   -0.5227   -0.1509   -0.9112 N   0  0  0  0  0  0  0  0  0  0  0  0
    0.6616    0.0422   -0.3053 C   0  0  0  0  0  0  0  0  0  0  0  0
    1.9216    0.0915   -0.8952 C   0  0  0  0  0  0  0  0  0  0  0  0
   -2.8737   -0.2763   -0.0594 C   0  0  0  0  0  0  0  0  0  0  0  0
   -3.6780   -0.6741    1.0266 C   0  0  0  0  0  0  0  0  0  0  0  0
   -5.0562   -0.8452    0.8670 C   0  0  0  0  0  0  0  0  0  0  0  0
   -5.8169   -1.2331    1.9203 F   0  0  0  0  0  0  0  0  0  0  0  0
   -5.6499   -0.6242   -0.3762 C   0  0  0  0  0  0  0  0  0  0  0  0
   -4.8673   -0.2323   -1.4631 C   0  0  0  0  0  0  0  0  0  0  0  0
   -3.4870   -0.0561   -1.3138 C   0  0  0  0  0  0  0  0  0  0  0  0
   -2.7423    0.3509   -2.4158 O   0  0  0  0  0  1  0  0  0  0  0  0
    6.4867   -0.1201   -0.2615 H   0  0  0  0  0  0  0  0  0  0  0  0
    5.3558   -0.7263    0.9876 H   0  0  0  0  0  0  0  0  0  0  0  0
    3.8600    1.3738   -2.3261 H   0  0  0  0  0  0  0  0  0  0  0  0
    5.5911    0.9609   -2.1828 H   0  0  0  0  0  0  0  0  0  0  0  0
    3.6867    0.6507    1.9996 H   0  0  0  0  0  0  0  0  0  0  0  0
    1.3978    0.5358    2.9639 H   0  0  0  0  0  0  0  0  0  0  0  0
   -1.2569    0.2013    2.2670 H   0  0  0  0  0  0  0  0  0  0  0  0
    2.0274   -0.0537   -1.9627 H   0  0  0  0  0  0  0  0  0  0  0  0
   -3.2441   -0.8749    1.9967 H   0  0  0  0  0  0  0  0  0  0  0  0
   -6.7170   -0.7580   -0.4992 H   0  0  0  0  0  0  0  0  0  0  0  0
   -5.3343   -0.0608   -2.4247 H   0  0  0  0  0  0  0  0  0  0  0  0
  1  2  1  0
  2  3  2  3
  2  4  1  0
  4  5  2  0
  5  6  1  0
  6  7  2  0
  7  8  1  0
  8  9  1  0
  9 10  2  0
 10 11  1  0
 11 12  2  0
  9 13  1  0
 13 14  2  0
 14 15  1  0
 15 16  1  0
 15 17  2  0
 17 18  1  0
 18 19  2  0
 19 20  1  0
 12  4  1  0
 19 13  1  0
 11  7  1  0
  1 21  1  0
  1 22  1  0
  3 23  1  0
  3 24  1  0
  5 25  1  0
  6 26  1  0
  8 27  1  0
 12 28  1  0
 14 29  1  0
 17 30  1  0
 18 31  1  0
M  CHG  2   3   1  20  -1
M  END
$$$$
