
     RDKit          3D

 38 39  0  0  0  0  0  0  0  0999 V2000
    0.3283   -1.5543    1.8430 O   0  0  0  0  0  0  0  0  0  0  0  0
   -0.4050   -1.2467    0.6853 C   0  0  1  0  0  0  0  0  0  0  0  0
   -1.8514   -0.9933    1.0287 C   0  0  0  0  0  0  0  0  0  0  0  0
   -2.1841    0.3153    0.3116 C   0  0  1  0  0  0  0  0  0  0  0  0
   -1.0789    0.7164   -0.4669 O   0  0  0  0  0  0  0  0  0  0  0  0
    0.0514    0.0781    0.0753 C   0  0  2  0  0  0  0  0  0  0  0  0
    1.1036   -0.1110   -1.0274 C   0  0  0  0  0  0  0  0  0  0  0  0
    2.2379   -0.7917   -0.5284 O   0  0  0  0  0  0  0  0  0  0  0  0
    3.5140    0.3100   -0.2563 P   0  0  0  0  0  5  0  0  0  0  0  0
    2.9777    1.5722    0.7374 O   0  0  0  0  0  0  0  0  0  0  0  0
    3.9739    0.8690   -1.5856 O   0  0  0  0  0  0  0  0  0  0  0  0
    4.7832   -0.5373    0.5014 O   0  0  0  0  0  0  0  0  0  0  0  0
    6.0968    0.5320    0.6826 P   0  0  0  0  0  5  0  0  0  0  0  0
    5.6421    1.9116    1.5524 O   0  0  0  0  0  0  0  0  0  0  0  0
    7.3224   -0.2669    1.5327 O   0  0  0  0  0  0  0  0  0  0  0  0
    6.6325    0.9407   -0.6717 O   0  0  0  0  0  0  0  0  0  0  0  0
   -3.3841    0.1689   -0.5380 N   0  0  0  0  0  0  0  0  0  0  0  0
   -4.5633    0.7208   -0.1187 C   0  0  0  0  0  0  0  0  0  0  0  0
   -5.7197    0.5924   -0.8831 C   0  0  0  0  0  0  0  0  0  0  0  0
   -5.6542   -0.1169   -2.0774 C   0  0  0  0  0  0  0  0  0  0  0  0
   -6.6851   -0.2480   -2.7899 O   0  0  0  0  0  0  0  0  0  0  0  0
   -4.4776   -0.6700   -2.4711 N   0  0  0  0  0  0  0  0  0  0  0  0
   -3.3515   -0.5404   -1.7158 C   0  0  0  0  0  0  0  0  0  0  0  0
   -2.2832   -1.0843   -2.1095 O   0  0  0  0  0  0  0  0  0  0  0  0
    1.1650   -1.9944    1.5423 H   0  0  0  0  0  0  0  0  0  0  0  0
   -0.3483   -2.0793   -0.0565 H   0  0  0  0  0  0  0  0  0  0  0  0
   -2.4876   -1.8386    0.6842 H   0  0  0  0  0  0  0  0  0  0  0  0
   -1.9944   -0.8709    2.1258 H   0  0  0  0  0  0  0  0  0  0  0  0
   -2.3478    1.1071    1.0793 H   0  0  0  0  0  0  0  0  0  0  0  0
    0.4710    0.7345    0.8697 H   0  0  0  0  0  0  0  0  0  0  0  0
    0.6629   -0.7332   -1.8356 H   0  0  0  0  0  0  0  0  0  0  0  0
    1.3281    0.8732   -1.5015 H   0  0  0  0  0  0  0  0  0  0  0  0
    2.8157    1.1471    1.6172 H   0  0  0  0  0  0  0  0  0  0  0  0
    5.3946    1.5725    2.4494 H   0  0  0  0  0  0  0  0  0  0  0  0
    8.0215    0.4203    1.6744 H   0  0  0  0  0  0  0  0  0  0  0  0
   -4.6190    1.2675    0.8153 H   0  0  0  0  0  0  0  0  0  0  0  0
   -6.6497    1.0358   -0.5487 H   0  0  0  0  0  0  0  0  0  0  0  0
   -4.4375   -1.2081   -3.3671 H   0  0  0  0  0  0  0  0  0  0  0  0
  1  2  1  0
  2  3  1  0
  3  4  1  0
  4  5  1  0
  5  6  1  0
  6  7  1  0
  7  8  1  0
  8  9  1  0
  9 10  1  0
  9 11  2  0
  9 12  1  0
 12 13  1  0
 13 14  1  0
 13 15  1  0
 13 16  2  0
  4 17  1  0
 17 18  1  0
 18 19  2  0
 19 20  1  0
 20 21  2  0
 20 22  1  0
 22 23  1  0
 23 24  2  0
  6  2  1  0
 23 17  1  0
  1 25  1  0
  2 26  1  6
  3 27  1  0
  3 28  1  0
  4 29  1  1
  6 30  1  1
  7 31  1  0
  7 32  1  0
 10 33  1  0
 14 34  1  0
 15 35  1  0
 18 36  1  0
 19 37  1  0
 22 38  1  0
M  END
$$$$
