
     RDKit          3D

 22 21  0  0  0  0  0  0  0  0999 V2000
   -1.4198    0.9990   -1.2376 C   0  0  0  0  0  0  0  0  0  0  0  0
   -0.9062   -0.0736   -0.2633 C   0  0  2  0  0  0  0  0  0  0  0  0
   -2.0912   -0.8570    0.3244 C   0  0  0  0  0  0  0  0  0  0  0  0
   -2.8988   -0.0302    1.0871 F   0  0  0  0  0  0  0  0  0  0  0  0
   -0.0332    0.5514    0.8642 C   0  0  0  0  0  0  0  0  0  0  0  0
    1.4963    0.4138    0.6615 C   0  0  2  0  0  0  0  0  0  0  0  0
    1.9669    1.0764   -0.5581 N   0  0  0  0  0  0  0  0  0  0  0  0
    1.9351   -1.0267    0.6969 C   0  0  0  0  0  0  0  0  0  0  0  0
    2.1862   -1.7222   -0.4832 O   0  0  0  0  0  0  0  0  0  0  0  0
    2.0440   -1.6187    1.8042 O   0  0  0  0  0  0  0  0  0  0  0  0
   -2.0809    1.7226   -0.7141 H   0  0  0  0  0  0  0  0  0  0  0  0
   -1.9945    0.5237   -2.0611 H   0  0  0  0  0  0  0  0  0  0  0  0
   -0.5771    1.5595   -1.6897 H   0  0  0  0  0  0  0  0  0  0  0  0
   -0.3071   -0.8015   -0.8508 H   0  0  0  0  0  0  0  0  0  0  0  0
   -2.6987   -1.3040   -0.4915 H   0  0  0  0  0  0  0  0  0  0  0  0
   -1.7175   -1.6862    0.9626 H   0  0  0  0  0  0  0  0  0  0  0  0
   -0.2825    1.6281    0.9923 H   0  0  0  0  0  0  0  0  0  0  0  0
   -0.2756    0.0792    1.8426 H   0  0  0  0  0  0  0  0  0  0  0  0
    1.9856    0.9222    1.5223 H   0  0  0  0  0  0  0  0  0  0  0  0
    1.5495    0.6227   -1.4018 H   0  0  0  0  0  0  0  0  0  0  0  0
    1.6532    2.0741   -0.5436 H   0  0  0  0  0  0  0  0  0  0  0  0
    2.4663   -2.6954   -0.4634 H   0  0  0  0  0  0  0  0  0  0  0  0
  1  2  1  0
  2  3  1  0
  3  4  1  0
  2  5  1  0
  5  6  1  0
  6  7  1  0
  6  8  1  0
  8  9  1  0
  8 10  2  0
  1 11  1  0
  1 12  1  0
  1 13  1  0
  2 14  1  6
  3 15  1  0
  3 16  1  0
  5 17  1  0
  5 18  1  0
  6 19  1  1
  7 20  1  0
  7 21  1  0
  9 22  1  0
M  END
$$$$
