
     RDKit          3D

 21 22  0  0  0  0  0  0  0  0999 V2000
   -2.3799   -1.3968    0.1178 C   0  0  0  0  0  0  0  0  0  0  0  0
   -1.5790   -0.1315   -0.0996 C   0  0  0  0  0  0  0  0  0  0  0  0
   -2.2129    1.0899   -0.4244 C   0  0  0  0  0  0  0  0  0  0  0  0
   -4.1236    1.2579   -0.6181 Br  0  0  0  0  0  0  0  0  0  0  0  0
   -1.4244    2.2331   -0.6155 C   0  0  0  0  0  0  0  0  0  0  0  0
   -1.9630    3.3339   -0.9056 O   0  0  0  0  0  0  0  0  0  0  0  0
   -0.1056    2.1743   -0.4946 O   0  0  0  0  0  0  0  0  0  0  0  0
    0.5448    1.0577   -0.1919 C   0  0  0  0  0  0  0  0  0  0  0  0
    1.9442    1.0838   -0.0834 C   0  0  0  0  0  0  0  0  0  0  0  0
    2.8997    2.7220   -0.3716 Br  0  0  0  0  0  0  0  0  0  0  0  0
    2.6463   -0.0856    0.2353 C   0  0  0  0  0  0  0  0  0  0  0  0
    4.0359   -0.0563    0.3423 O   0  0  0  0  0  0  0  0  0  0  0  0
    1.9493   -1.2802    0.4454 C   0  0  0  0  0  0  0  0  0  0  0  0
    0.5576   -1.3159    0.3397 C   0  0  0  0  0  0  0  0  0  0  0  0
   -0.1665   -0.1482    0.0195 C   0  0  0  0  0  0  0  0  0  0  0  0
   -3.4702   -1.2588   -0.0021 H   0  0  0  0  0  0  0  0  0  0  0  0
   -2.0638   -2.1685   -0.6153 H   0  0  0  0  0  0  0  0  0  0  0  0
   -2.2078   -1.7744    1.1477 H   0  0  0  0  0  0  0  0  0  0  0  0
    4.5684   -0.8875    0.5716 H   0  0  0  0  0  0  0  0  0  0  0  0
    2.4876   -2.1866    0.6920 H   0  0  0  0  0  0  0  0  0  0  0  0
    0.0629   -2.2622    0.5108 H   0  0  0  0  0  0  0  0  0  0  0  0
  1  2  1  0
  2  3  2  0
  3  4  1  0
  3  5  1  0
  5  6  2  0
  5  7  1  0
  7  8  1  0
  8  9  2  0
  9 10  1  0
  9 11  1  0
 11 12  1  0
 11 13  2  0
 13 14  1  0
 14 15  2  0
 15  2  1  0
 15  8  1  0
  1 16  1  0
  1 17  1  0
  1 18  1  0
 12 19  1  0
 13 20  1  0
 14 21  1  0
M  END
$$$$
