
     RDKit          3D

 78 81  0  0  0  0  0  0  0  0999 V2000
   -5.4625   -0.3833   -0.4433 C   0  0  0  0  0  0  0  0  0  0  0  0
   -4.4206   -0.5171    0.6762 C   0  0  2  0  0  0  0  0  0  0  0  0
   -3.7891    0.8460    1.0081 C   0  0  0  0  0  0  0  0  0  0  0  0
   -3.1920    1.4672   -0.1876 N   0  0  0  0  0  0  0  0  0  0  0  0
   -1.7257    1.3080   -0.2756 C   0  0  1  0  0  0  0  0  0  0  0  0
   -1.3345    1.1099   -1.7651 C   0  0  0  0  0  0  0  0  0  0  0  0
   -1.7932    2.2117   -2.7148 C   0  0  0  0  0  0  0  0  0  0  0  0
   -0.3119    2.0131   -2.4490 C   0  0  0  0  0  0  0  0  0  0  0  0
   -0.9863    2.4276    0.4495 C   0  0  0  0  0  0  0  0  0  0  0  0
   -1.2094    3.6267    0.1294 O   0  0  0  0  0  0  0  0  0  0  0  0
   -0.0241    2.1401    1.4893 N   0  0  0  0  0  0  0  0  0  0  0  0
   -0.4445    1.3265    2.6357 C   0  0  0  0  0  0  0  0  0  0  0  0
    1.2601    2.8661    1.5750 C   0  0  2  0  0  0  0  0  0  0  0  0
    1.0715    4.1945    2.3218 C   0  0  0  0  0  0  0  0  0  0  0  0
    1.8954    3.0520    0.2097 C   0  0  0  0  0  0  0  0  0  0  0  0
    1.9170    4.1995   -0.3140 O   0  0  0  0  0  0  0  0  0  0  0  0
    2.4599    1.9524   -0.5278 N   0  0  0  0  0  0  0  0  0  0  0  0
    2.5086    0.5608   -0.0563 C   0  0  2  0  0  0  0  0  0  0  0  0
    3.8744    0.2480    0.5850 C   0  0  0  0  0  0  0  0  0  0  0  0
    5.0362    0.4382   -0.3599 C   0  0  0  0  0  0  0  0  0  0  0  0
    5.6454    1.6978   -0.4911 C   0  0  0  0  0  0  0  0  0  0  0  0
    6.7081    1.8775   -1.3818 C   0  0  0  0  0  0  0  0  0  0  0  0
    7.1702    0.8031   -2.1473 C   0  0  0  0  0  0  0  0  0  0  0  0
    8.2000    0.9795   -3.0113 F   0  0  0  0  0  0  0  0  0  0  0  0
    6.5694   -0.4530   -2.0228 C   0  0  0  0  0  0  0  0  0  0  0  0
    5.5065   -0.6366   -1.1333 C   0  0  0  0  0  0  0  0  0  0  0  0
    2.1897   -0.3978   -1.1897 C   0  0  0  0  0  0  0  0  0  0  0  0
    2.6162   -0.1422   -2.3486 O   0  0  0  0  0  0  0  0  0  0  0  0
    1.4578   -1.6185   -0.9837 N   0  0  0  0  0  0  0  0  0  0  0  0
    0.8649   -2.0027    0.2995 C   0  0  0  0  0  0  0  0  0  0  0  0
   -0.0618   -3.2170    0.1641 C   0  0  0  0  0  0  0  0  0  0  0  0
   -1.2172   -2.9609   -0.8254 C   0  0  0  0  0  0  0  0  0  0  0  0
   -2.4982   -3.6098   -0.3615 C   0  0  0  0  0  0  0  0  0  0  0  0
   -2.6302   -5.0044   -0.4662 C   0  0  0  0  0  0  0  0  0  0  0  0
   -3.7875   -5.6415   -0.0185 C   0  0  0  0  0  0  0  0  0  0  0  0
   -4.8213   -4.8953    0.5448 C   0  0  0  0  0  0  0  0  0  0  0  0
   -4.7048   -3.5084    0.6601 C   0  0  0  0  0  0  0  0  0  0  0  0
   -3.5457   -2.8454    0.2044 C   0  0  0  0  0  0  0  0  0  0  0  0
   -3.3986   -1.4466    0.3008 O   0  0  0  0  0  0  0  0  0  0  0  0
   -4.9738   -0.0942   -1.3979 H   0  0  0  0  0  0  0  0  0  0  0  0
   -5.9905   -1.3451   -0.6029 H   0  0  0  0  0  0  0  0  0  0  0  0
   -6.2192    0.3843   -0.1748 H   0  0  0  0  0  0  0  0  0  0  0  0
   -4.9221   -0.8679    1.6038 H   0  0  0  0  0  0  0  0  0  0  0  0
   -4.5866    1.5106    1.4109 H   0  0  0  0  0  0  0  0  0  0  0  0
   -3.0518    0.7198    1.8262 H   0  0  0  0  0  0  0  0  0  0  0  0
   -3.4546    2.4802   -0.2193 H   0  0  0  0  0  0  0  0  0  0  0  0
   -1.4332    0.3509    0.1975 H   0  0  0  0  0  0  0  0  0  0  0  0
   -1.4652    0.1020   -2.2110 H   0  0  0  0  0  0  0  0  0  0  0  0
   -2.2057    3.1345   -2.2561 H   0  0  0  0  0  0  0  0  0  0  0  0
   -2.1169    1.8582   -3.7168 H   0  0  0  0  0  0  0  0  0  0  0  0
    0.2247    1.5439   -3.3002 H   0  0  0  0  0  0  0  0  0  0  0  0
    0.1274    2.8591   -1.8912 H   0  0  0  0  0  0  0  0  0  0  0  0
    0.3378    1.2988    3.4235 H   0  0  0  0  0  0  0  0  0  0  0  0
   -0.6417    0.2827    2.3243 H   0  0  0  0  0  0  0  0  0  0  0  0
   -1.3594    1.7624    3.0882 H   0  0  0  0  0  0  0  0  0  0  0  0
    1.9809    2.2719    2.1781 H   0  0  0  0  0  0  0  0  0  0  0  0
    0.3783    4.8670    1.7751 H   0  0  0  0  0  0  0  0  0  0  0  0
    0.6549    4.0045    3.3336 H   0  0  0  0  0  0  0  0  0  0  0  0
    2.0500    4.7074    2.4405 H   0  0  0  0  0  0  0  0  0  0  0  0
    2.9434    2.1886   -1.4243 H   0  0  0  0  0  0  0  0  0  0  0  0
    1.7524    0.4263    0.7330 H   0  0  0  0  0  0  0  0  0  0  0  0
    4.0136    0.9018    1.4736 H   0  0  0  0  0  0  0  0  0  0  0  0
    3.8691   -0.7962    0.9681 H   0  0  0  0  0  0  0  0  0  0  0  0
    5.2944    2.5397    0.0929 H   0  0  0  0  0  0  0  0  0  0  0  0
    7.1717    2.8507   -1.4788 H   0  0  0  0  0  0  0  0  0  0  0  0
    6.9256   -1.2849   -2.6167 H   0  0  0  0  0  0  0  0  0  0  0  0
    5.0467   -1.6138   -1.0507 H   0  0  0  0  0  0  0  0  0  0  0  0
    1.3291   -2.2443   -1.8112 H   0  0  0  0  0  0  0  0  0  0  0  0
    0.2587   -1.1691    0.7003 H   0  0  0  0  0  0  0  0  0  0  0  0
    1.6742   -2.2330    1.0247 H   0  0  0  0  0  0  0  0  0  0  0  0
   -0.4628   -3.4438    1.1772 H   0  0  0  0  0  0  0  0  0  0  0  0
    0.5250   -4.1017   -0.1663 H   0  0  0  0  0  0  0  0  0  0  0  0
   -1.3736   -1.8745   -0.9728 H   0  0  0  0  0  0  0  0  0  0  0  0
   -0.9422   -3.3658   -1.8238 H   0  0  0  0  0  0  0  0  0  0  0  0
   -1.8310   -5.5987   -0.8923 H   0  0  0  0  0  0  0  0  0  0  0  0
   -3.8806   -6.7166   -0.1032 H   0  0  0  0  0  0  0  0  0  0  0  0
   -5.7157   -5.3933    0.8966 H   0  0  0  0  0  0  0  0  0  0  0  0
   -5.5238   -2.9681    1.1108 H   0  0  0  0  0  0  0  0  0  0  0  0
  1  2  1  0
  2  3  1  0
  3  4  1  0
  4  5  1  0
  5  6  1  0
  6  7  1  0
  7  8  1  0
  5  9  1  0
  9 10  2  0
  9 11  1  0
 11 12  1  0
 11 13  1  0
 13 14  1  0
 13 15  1  0
 15 16  2  0
 15 17  1  0
 17 18  1  0
 18 19  1  0
 19 20  1  0
 20 21  2  0
 21 22  1  0
 22 23  2  0
 23 24  1  0
 23 25  1  0
 25 26  2  0
 18 27  1  0
 27 28  2  0
 27 29  1  0
 29 30  1  0
 30 31  1  0
 31 32  1  0
 32 33  1  0
 33 34  2  0
 34 35  1  0
 35 36  2  0
 36 37  1  0
 37 38  2  0
 38 39  1  0
 39  2  1  0
  8  6  1  0
 26 20  1  0
 38 33  1  0
  1 40  1  0
  1 41  1  0
  1 42  1  0
  2 43  1  1
  3 44  1  0
  3 45  1  0
  4 46  1  0
  5 47  1  1
  6 48  1  0
  7 49  1  0
  7 50  1  0
  8 51  1  0
  8 52  1  0
 12 53  1  0
 12 54  1  0
 12 55  1  0
 13 56  1  1
 14 57  1  0
 14 58  1  0
 14 59  1  0
 17 60  1  0
 18 61  1  1
 19 62  1  0
 19 63  1  0
 21 64  1  0
 22 65  1  0
 25 66  1  0
 26 67  1  0
 29 68  1  0
 30 69  1  0
 30 70  1  0
 31 71  1  0
 31 72  1  0
 32 73  1  0
 32 74  1  0
 34 75  1  0
 35 76  1  0
 36 77  1  0
 37 78  1  0
M  END
$$$$
