
     RDKit          3D

 24 26  0  0  0  0  0  0  0  0999 V2000
    5.2456   -1.3837   -0.0099 F   0  0  0  0  0  0  0  0  0  0  0  0
    4.3259   -0.7616    0.8133 C   0  0  0  0  0  0  0  0  0  0  0  0
    4.7553   -0.7925    2.1268 F   0  0  0  0  0  0  0  0  0  0  0  0
    4.1174    0.5931    0.3906 O   0  0  0  0  0  0  0  0  0  0  0  0
    2.7858    0.7303    0.0485 C   0  0  0  0  0  0  0  0  0  0  0  0
    2.1465   -0.4526    0.2315 C   0  0  0  0  0  0  0  0  0  0  0  0
    3.0446   -1.3950    0.6945 O   0  0  0  0  0  0  0  0  0  0  0  0
    0.7902   -0.6083   -0.0392 C   0  0  0  0  0  0  0  0  0  0  0  0
    0.0706    0.5188   -0.5021 C   0  0  0  0  0  0  0  0  0  0  0  0
   -1.3619    0.4277   -0.8509 C   0  0  0  0  0  0  0  0  0  0  0  0
   -2.2915   -0.1506   -0.0743 C   0  0  0  0  0  0  0  0  0  0  0  0
   -1.9916   -0.7976    1.5854 S   0  0  0  0  0  0  0  0  0  0  0  0
   -3.7586   -1.0874    1.7209 C   0  0  0  0  0  0  0  0  0  0  0  0
   -4.2825   -1.5683    2.7591 O   0  0  0  0  0  0  0  0  0  0  0  0
   -4.5353   -0.7398    0.5845 N   0  0  0  0  0  0  0  0  0  0  0  0
   -3.7091   -0.2052   -0.4316 C   0  0  0  0  0  0  0  0  0  0  0  0
   -4.1737    0.1873   -1.5352 O   0  0  0  0  0  0  0  0  0  0  0  0
    0.7530    1.7433   -0.7146 C   0  0  0  0  0  0  0  0  0  0  0  0
    2.1254    1.8581   -0.4274 C   0  0  0  0  0  0  0  0  0  0  0  0
    0.3197   -1.5750    0.0828 H   0  0  0  0  0  0  0  0  0  0  0  0
   -1.6760    0.9117   -1.7683 H   0  0  0  0  0  0  0  0  0  0  0  0
   -5.5713   -0.8507    0.5137 H   0  0  0  0  0  0  0  0  0  0  0  0
    0.2190    2.6067   -1.0923 H   0  0  0  0  0  0  0  0  0  0  0  0
    2.6522    2.7913   -0.5769 H   0  0  0  0  0  0  0  0  0  0  0  0
  1  2  1  0
  2  3  1  0
  2  4  1  0
  4  5  1  0
  5  6  2  0
  6  7  1  0
  6  8  1  0
  8  9  2  0
  9 10  1  0
 10 11  2  0
 11 12  1  0
 12 13  1  0
 13 14  2  0
 13 15  1  0
 15 16  1  0
 16 17  2  0
  9 18  1  0
 18 19  2  0
  7  2  1  0
 16 11  1  0
 19  5  1  0
  8 20  1  0
 10 21  1  0
 15 22  1  0
 18 23  1  0
 19 24  1  0
M  END
$$$$
