
     RDKit          3D

 39 40  0  0  0  0  0  0  0  0999 V2000
    4.4761   -0.5179    1.1655 C   0  0  0  0  0  0  0  0  0  0  0  0
    4.5158   -1.0555   -0.2000 N   0  0  0  0  0  0  0  0  0  0  0  0
    4.7598    0.0286   -1.1596 C   0  0  0  0  0  0  0  0  0  0  0  0
    2.9900   -1.8171   -0.5684 S   0  0  0  0  0  6  0  0  0  0  0  0
    2.7686   -2.9571    0.3892 O   0  0  0  0  0  0  0  0  0  0  0  0
    3.0564   -2.3850   -1.9608 O   0  0  0  0  0  0  0  0  0  0  0  0
    1.7021   -0.6314   -0.4374 N   0  0  0  0  0  0  0  0  0  0  0  0
    0.9178   -0.5797   -1.6819 C   0  0  0  0  0  0  0  0  0  0  0  0
   -0.1394    0.5250   -1.6015 C   0  0  0  0  0  0  0  0  0  0  0  0
   -0.9340    0.3872   -0.3735 N   0  0  0  0  0  0  0  0  0  0  0  0
   -0.2165    0.1539    0.8862 C   0  0  0  0  0  0  0  0  0  0  0  0
    0.8274   -0.9474    0.7036 C   0  0  0  0  0  0  0  0  0  0  0  0
   -2.3210    0.7841   -0.3356 C   0  0  0  0  0  0  0  0  0  0  0  0
   -2.8267    1.7672   -1.2016 C   0  0  0  0  0  0  0  0  0  0  0  0
   -4.1740    2.1135   -1.1087 C   0  0  0  0  0  0  0  0  0  0  0  0
   -4.9706    1.5047   -0.1938 N   0  0  0  0  0  0  0  0  0  0  0  0
   -4.4756    0.5486    0.6356 C   0  0  0  0  0  0  0  0  0  0  0  0
   -5.3592   -0.0817    1.6647 C   0  0  0  0  0  0  0  0  0  0  0  0
   -5.3699    0.6964    2.8296 O   0  0  0  0  0  0  0  0  0  0  0  0
   -3.1614    0.2073    0.5671 N   0  0  0  0  0  0  0  0  0  0  0  0
    5.4588   -0.0691    1.4253 H   0  0  0  0  0  0  0  0  0  0  0  0
    3.6861    0.2577    1.2755 H   0  0  0  0  0  0  0  0  0  0  0  0
    4.2859   -1.3357    1.8924 H   0  0  0  0  0  0  0  0  0  0  0  0
    5.7371    0.5130   -0.9471 H   0  0  0  0  0  0  0  0  0  0  0  0
    4.8135   -0.3808   -2.1906 H   0  0  0  0  0  0  0  0  0  0  0  0
    3.9580    0.7989   -1.1167 H   0  0  0  0  0  0  0  0  0  0  0  0
    1.5868   -0.3478   -2.5393 H   0  0  0  0  0  0  0  0  0  0  0  0
    0.4214   -1.5580   -1.8755 H   0  0  0  0  0  0  0  0  0  0  0  0
    0.3573    1.5195   -1.6075 H   0  0  0  0  0  0  0  0  0  0  0  0
   -0.7894    0.4437   -2.4998 H   0  0  0  0  0  0  0  0  0  0  0  0
   -0.9125   -0.1491    1.6977 H   0  0  0  0  0  0  0  0  0  0  0  0
    0.2876    1.0948    1.1969 H   0  0  0  0  0  0  0  0  0  0  0  0
    0.3124   -1.9231    0.5496 H   0  0  0  0  0  0  0  0  0  0  0  0
    1.4295   -1.0110    1.6363 H   0  0  0  0  0  0  0  0  0  0  0  0
   -2.1938    2.2744   -1.9175 H   0  0  0  0  0  0  0  0  0  0  0  0
   -4.5854    2.8737   -1.7592 H   0  0  0  0  0  0  0  0  0  0  0  0
   -6.3950   -0.1510    1.2703 H   0  0  0  0  0  0  0  0  0  0  0  0
   -5.0142   -1.1167    1.8888 H   0  0  0  0  0  0  0  0  0  0  0  0
   -4.5098    0.5230    3.2949 H   0  0  0  0  0  0  0  0  0  0  0  0
  1  2  1  0
  2  3  1  0
  2  4  1  0
  4  5  2  0
  4  6  2  0
  4  7  1  0
  7  8  1  0
  8  9  1  0
  9 10  1  0
 10 11  1  0
 11 12  1  0
 10 13  1  0
 13 14  2  0
 14 15  1  0
 15 16  2  0
 16 17  1  0
 17 18  1  0
 18 19  1  0
 17 20  2  0
 12  7  1  0
 20 13  1  0
  1 21  1  0
  1 22  1  0
  1 23  1  0
  3 24  1  0
  3 25  1  0
  3 26  1  0
  8 27  1  0
  8 28  1  0
  9 29  1  0
  9 30  1  0
 11 31  1  0
 11 32  1  0
 12 33  1  0
 12 34  1  0
 14 35  1  0
 15 36  1  0
 18 37  1  0
 18 38  1  0
 19 39  1  0
M  END
$$$$
