
     RDKit          3D

 70 75  0  0  0  0  0  0  0  0999 V2000
   -2.1219   -0.4559    2.9627 C   0  0  0  0  0  0  0  0  0  0  0  0
   -1.5625   -1.5061    2.0087 C   0  0  0  0  0  0  0  0  0  0  0  0
   -0.2931   -1.0153    1.3533 C   0  0  0  0  0  0  0  0  0  0  0  0
    0.9386   -1.2761    1.9674 C   0  0  0  0  0  0  0  0  0  0  0  0
    2.1413   -0.7999    1.4179 C   0  0  0  0  0  0  0  0  0  0  0  0
    2.1180   -0.0270    0.2211 C   0  0  0  0  0  0  0  0  0  0  0  0
    0.8674    0.2374   -0.3748 C   0  0  0  0  0  0  0  0  0  0  0  0
   -0.3250   -0.2421    0.1786 C   0  0  0  0  0  0  0  0  0  0  0  0
   -1.5706    0.0656   -0.4644 N   0  0  0  0  0  0  0  0  0  0  0  0
   -2.0303    1.4585   -0.4860 C   0  0  0  0  0  0  0  0  0  0  0  0
   -3.5613    1.5113   -0.5215 C   0  0  0  0  0  0  0  0  0  0  0  0
   -4.1075    0.6438   -1.6706 C   0  0  0  0  0  0  0  0  0  0  0  0
   -3.6145   -0.8152   -1.5132 C   0  0  0  0  0  0  0  0  0  0  0  0
   -2.0833   -0.8600   -1.4805 C   0  0  0  0  0  0  0  0  0  0  0  0
   -5.5853    0.7846   -1.7731 N   0  0  0  0  0  0  0  0  0  0  0  0
   -6.3611    0.0320   -0.7664 C   0  0  0  0  0  0  0  0  0  0  0  0
   -7.8488    0.3608   -0.9291 C   0  0  0  0  0  0  0  0  0  0  0  0
   -8.2945    0.0159   -2.2273 O   0  0  0  0  0  0  0  0  0  0  0  0
   -7.5904    0.7729   -3.1941 C   0  0  0  0  0  0  0  0  0  0  0  0
   -6.0850    0.4829   -3.1275 C   0  0  0  0  0  0  0  0  0  0  0  0
    3.4032    0.5311   -0.4391 C   0  0  0  0  0  0  0  0  0  0  0  0
    3.5397   -0.0413   -1.8654 C   0  0  0  0  0  0  0  0  0  0  0  0
    3.3274    2.0712   -0.4934 C   0  0  0  0  0  0  0  0  0  0  0  0
    4.6525    0.1529    0.3372 C   0  0  0  0  0  0  0  0  0  0  0  0
    4.6465   -0.5956    1.4954 C   0  0  0  0  0  0  0  0  0  0  0  0
    5.9645   -0.7176    1.8892 C   0  0  0  0  0  0  0  0  0  0  0  0
    6.7077   -0.0391    0.9539 C   0  0  0  0  0  0  0  0  0  0  0  0
    5.9209    0.4967    0.0020 N   0  0  0  0  0  0  0  0  0  0  0  0
    8.0964    0.0436    1.0420 C   0  0  0  0  0  0  0  0  0  0  0  0
    8.7285   -0.5943    2.1280 C   0  0  0  0  0  0  0  0  0  0  0  0
    7.9608   -1.2927    3.0901 C   0  0  0  0  0  0  0  0  0  0  0  0
    6.5603   -1.3592    2.9754 C   0  0  0  0  0  0  0  0  0  0  0  0
   10.1604   -0.5348    2.2586 C   0  0  0  0  0  0  0  0  0  0  0  0
   11.3118   -0.4869    2.3636 N   0  0  0  0  0  0  0  0  0  0  0  0
    3.4213   -1.1052    2.0941 C   0  0  0  0  0  0  0  0  0  0  0  0
    3.4583   -1.7851    3.1549 O   0  0  0  0  0  0  0  0  0  0  0  0
   -1.3843   -0.2308    3.7623 H   0  0  0  0  0  0  0  0  0  0  0  0
   -3.0517   -0.8389    3.4333 H   0  0  0  0  0  0  0  0  0  0  0  0
   -2.3619    0.4785    2.4138 H   0  0  0  0  0  0  0  0  0  0  0  0
   -2.3290   -1.7566    1.2470 H   0  0  0  0  0  0  0  0  0  0  0  0
   -1.3637   -2.4411    2.5765 H   0  0  0  0  0  0  0  0  0  0  0  0
    0.9557   -1.8529    2.8847 H   0  0  0  0  0  0  0  0  0  0  0  0
    0.8070    0.8218   -1.2830 H   0  0  0  0  0  0  0  0  0  0  0  0
   -1.6140    1.9711   -1.3805 H   0  0  0  0  0  0  0  0  0  0  0  0
   -1.6729    1.9969    0.4193 H   0  0  0  0  0  0  0  0  0  0  0  0
   -3.9489    1.1538    0.4556 H   0  0  0  0  0  0  0  0  0  0  0  0
   -3.8874    2.5649   -0.6597 H   0  0  0  0  0  0  0  0  0  0  0  0
   -3.6506    1.0489   -2.6038 H   0  0  0  0  0  0  0  0  0  0  0  0
   -3.9747   -1.4398   -2.3572 H   0  0  0  0  0  0  0  0  0  0  0  0
   -3.9882   -1.2536   -0.5636 H   0  0  0  0  0  0  0  0  0  0  0  0
   -1.6753   -0.5773   -2.4753 H   0  0  0  0  0  0  0  0  0  0  0  0
   -1.7582   -1.9001   -1.2573 H   0  0  0  0  0  0  0  0  0  0  0  0
   -6.0489    0.3129    0.2605 H   0  0  0  0  0  0  0  0  0  0  0  0
   -6.2334   -1.0649   -0.8989 H   0  0  0  0  0  0  0  0  0  0  0  0
   -8.0368    1.4378   -0.7157 H   0  0  0  0  0  0  0  0  0  0  0  0
   -8.4287   -0.2293   -0.1885 H   0  0  0  0  0  0  0  0  0  0  0  0
   -7.7829    1.8620   -3.0612 H   0  0  0  0  0  0  0  0  0  0  0  0
   -7.9634    0.4928   -4.2017 H   0  0  0  0  0  0  0  0  0  0  0  0
   -5.5742    1.1252   -3.8779 H   0  0  0  0  0  0  0  0  0  0  0  0
   -5.9045   -0.5831   -3.3888 H   0  0  0  0  0  0  0  0  0  0  0  0
    3.5778   -1.1518   -1.8318 H   0  0  0  0  0  0  0  0  0  0  0  0
    4.4665    0.3258   -2.3559 H   0  0  0  0  0  0  0  0  0  0  0  0
    2.6870    0.2599   -2.5087 H   0  0  0  0  0  0  0  0  0  0  0  0
    4.2488    2.5006   -0.9419 H   0  0  0  0  0  0  0  0  0  0  0  0
    2.4716    2.4159   -1.1101 H   0  0  0  0  0  0  0  0  0  0  0  0
    3.2106    2.4866    0.5311 H   0  0  0  0  0  0  0  0  0  0  0  0
    6.2306    1.0599   -0.8210 H   0  0  0  0  0  0  0  0  0  0  0  0
    8.6662    0.5832    0.2951 H   0  0  0  0  0  0  0  0  0  0  0  0
    8.4471   -1.7828    3.9248 H   0  0  0  0  0  0  0  0  0  0  0  0
    5.9743   -1.8930    3.7108 H   0  0  0  0  0  0  0  0  0  0  0  0
  1  2  1  0
  2  3  1  0
  3  4  2  0
  4  5  1  0
  5  6  2  0
  6  7  1  0
  7  8  2  0
  8  9  1  0
  9 10  1  0
 10 11  1  0
 11 12  1  0
 12 13  1  0
 13 14  1  0
 12 15  1  0
 15 16  1  0
 16 17  1  0
 17 18  1  0
 18 19  1  0
 19 20  1  0
  6 21  1  0
 21 22  1  0
 21 23  1  0
 21 24  1  0
 24 25  2  0
 25 26  1  0
 26 27  2  0
 27 28  1  0
 27 29  1  0
 29 30  2  0
 30 31  1  0
 31 32  2  0
 30 33  1  0
 33 34  3  0
 25 35  1  0
 35 36  2  0
  8  3  1  0
 14  9  1  0
 20 15  1  0
 28 24  1  0
 35  5  1  0
 32 26  1  0
  1 37  1  0
  1 38  1  0
  1 39  1  0
  2 40  1  0
  2 41  1  0
  4 42  1  0
  7 43  1  0
 10 44  1  0
 10 45  1  0
 11 46  1  0
 11 47  1  0
 12 48  1  0
 13 49  1  0
 13 50  1  0
 14 51  1  0
 14 52  1  0
 16 53  1  0
 16 54  1  0
 17 55  1  0
 17 56  1  0
 19 57  1  0
 19 58  1  0
 20 59  1  0
 20 60  1  0
 22 61  1  0
 22 62  1  0
 22 63  1  0
 23 64  1  0
 23 65  1  0
 23 66  1  0
 28 67  1  0
 29 68  1  0
 31 69  1  0
 32 70  1  0
M  END
$$$$
