
     RDKit          3D

 59 64  0  0  0  0  0  0  0  0999 V2000
   -3.2556   -3.4101    2.2930 C   0  0  0  0  0  0  0  0  0  0  0  0
   -2.9222   -2.2864    1.4842 O   0  0  0  0  0  0  0  0  0  0  0  0
   -1.6186   -1.8368    1.2170 C   0  0  0  0  0  0  0  0  0  0  0  0
   -1.4148   -0.6933    0.3878 C   0  0  0  0  0  0  0  0  0  0  0  0
   -0.0756   -0.2847    0.1518 C   0  0  0  0  0  0  0  0  0  0  0  0
    1.0184   -0.9702    0.7028 C   0  0  0  0  0  0  0  0  0  0  0  0
    0.7862   -2.0846    1.5117 C   0  0  0  0  0  0  0  0  0  0  0  0
   -0.5112   -2.5119    1.7653 C   0  0  0  0  0  0  0  0  0  0  0  0
    2.4074   -0.5190    0.4306 C   0  0  0  0  0  0  0  0  0  0  0  0
    3.3586   -0.4753    1.4659 C   0  0  0  0  0  0  0  0  0  0  0  0
    4.6713   -0.0496    1.2111 C   0  0  0  0  0  0  0  0  0  0  0  0
    5.0426    0.3379   -0.0964 C   0  0  0  0  0  0  0  0  0  0  0  0
    4.0940    0.2929   -1.1274 C   0  0  0  0  0  0  0  0  0  0  0  0
    2.7890   -0.1314   -0.8661 C   0  0  0  0  0  0  0  0  0  0  0  0
    6.3555    0.7638   -0.3511 C   0  0  0  0  0  0  0  0  0  0  0  0
    7.3058    0.8094    0.6855 C   0  0  0  0  0  0  0  0  0  0  0  0
    6.9242    0.4229    1.9816 C   0  0  0  0  0  0  0  0  0  0  0  0
    5.6192   -0.0025    2.2425 C   0  0  0  0  0  0  0  0  0  0  0  0
    8.6908    1.2583    0.4198 C   0  0  0  0  0  0  0  0  0  0  0  0
    9.6252    1.3006    1.4516 O   0  0  0  0  0  0  0  0  0  0  0  0
    9.0383    1.6062   -0.7412 O   0  0  0  0  0  0  0  0  0  0  0  0
   -2.6138    0.0786   -0.2358 C   0  0  0  0  0  0  0  0  0  0  0  0
   -2.1653    1.3008   -1.1101 C   0  0  0  0  0  0  0  0  0  0  0  0
   -3.3811    2.0383   -1.7113 C   0  0  0  0  0  0  0  0  0  0  0  0
   -4.1810    1.0684   -2.6023 C   0  0  0  0  0  0  0  0  0  0  0  0
   -4.6600   -0.1253   -1.7538 C   0  0  0  0  0  0  0  0  0  0  0  0
   -5.5566    0.3836   -0.6040 C   0  0  0  0  0  0  0  0  0  0  0  0
   -4.7598    1.3671    0.2807 C   0  0  0  0  0  0  0  0  0  0  0  0
   -4.2808    2.5573   -0.5729 C   0  0  0  0  0  0  0  0  0  0  0  0
   -3.5390    0.6420    0.8889 C   0  0  0  0  0  0  0  0  0  0  0  0
   -3.4382   -0.8657   -1.1669 C   0  0  0  0  0  0  0  0  0  0  0  0
   -2.8189   -4.3351    1.8611 H   0  0  0  0  0  0  0  0  0  0  0  0
   -4.3590   -3.5195    2.3211 H   0  0  0  0  0  0  0  0  0  0  0  0
   -2.8883   -3.2573    3.3298 H   0  0  0  0  0  0  0  0  0  0  0  0
    0.1487    0.5826   -0.4473 H   0  0  0  0  0  0  0  0  0  0  0  0
    1.6133   -2.6398    1.9369 H   0  0  0  0  0  0  0  0  0  0  0  0
   -0.6420   -3.3819    2.3935 H   0  0  0  0  0  0  0  0  0  0  0  0
    3.0724   -0.7567    2.4730 H   0  0  0  0  0  0  0  0  0  0  0  0
    4.3618    0.5826   -2.1367 H   0  0  0  0  0  0  0  0  0  0  0  0
    2.0802   -0.1728   -1.6838 H   0  0  0  0  0  0  0  0  0  0  0  0
    6.6354    1.0595   -1.3557 H   0  0  0  0  0  0  0  0  0  0  0  0
    7.6352    0.4485    2.7979 H   0  0  0  0  0  0  0  0  0  0  0  0
    5.3518   -0.2952    3.2511 H   0  0  0  0  0  0  0  0  0  0  0  0
   10.5757    1.6062    1.2806 H   0  0  0  0  0  0  0  0  0  0  0  0
   -1.5146    0.9607   -1.9466 H   0  0  0  0  0  0  0  0  0  0  0  0
   -1.5883    2.0266   -0.4944 H   0  0  0  0  0  0  0  0  0  0  0  0
   -3.0287    2.8968   -2.3238 H   0  0  0  0  0  0  0  0  0  0  0  0
   -5.0542    1.5931   -3.0487 H   0  0  0  0  0  0  0  0  0  0  0  0
   -3.5454    0.7091   -3.4415 H   0  0  0  0  0  0  0  0  0  0  0  0
   -5.2419   -0.8225   -2.3954 H   0  0  0  0  0  0  0  0  0  0  0  0
   -5.9144   -0.4739    0.0074 H   0  0  0  0  0  0  0  0  0  0  0  0
   -6.4546    0.8910   -1.0203 H   0  0  0  0  0  0  0  0  0  0  0  0
   -5.4134    1.7409    1.0988 H   0  0  0  0  0  0  0  0  0  0  0  0
   -5.1553    3.0994   -0.9953 H   0  0  0  0  0  0  0  0  0  0  0  0
   -3.7177    3.2781    0.0599 H   0  0  0  0  0  0  0  0  0  0  0  0
   -3.9191   -0.1538    1.5573 H   0  0  0  0  0  0  0  0  0  0  0  0
   -2.9663    1.3486    1.5299 H   0  0  0  0  0  0  0  0  0  0  0  0
   -3.8117   -1.7600   -0.6326 H   0  0  0  0  0  0  0  0  0  0  0  0
   -2.7934   -1.2365   -1.9945 H   0  0  0  0  0  0  0  0  0  0  0  0
  1  2  1  0
  2  3  1  0
  3  4  2  0
  4  5  1  0
  5  6  2  0
  6  7  1  0
  7  8  2  0
  6  9  1  0
  9 10  2  0
 10 11  1  0
 11 12  2  0
 12 13  1  0
 13 14  2  0
 12 15  1  0
 15 16  2  0
 16 17  1  0
 17 18  2  0
 16 19  1  0
 19 20  1  0
 19 21  2  0
  4 22  1  0
 22 23  1  0
 23 24  1  0
 24 25  1  0
 25 26  1  0
 26 27  1  0
 27 28  1  0
 28 29  1  0
 28 30  1  0
 26 31  1  0
  8  3  1  0
 14  9  1  0
 30 22  1  0
 18 11  1  0
 31 22  1  0
 29 24  1  0
  1 32  1  0
  1 33  1  0
  1 34  1  0
  5 35  1  0
  7 36  1  0
  8 37  1  0
 10 38  1  0
 13 39  1  0
 14 40  1  0
 15 41  1  0
 17 42  1  0
 18 43  1  0
 20 44  1  0
 23 45  1  0
 23 46  1  0
 24 47  1  0
 25 48  1  0
 25 49  1  0
 26 50  1  0
 27 51  1  0
 27 52  1  0
 28 53  1  0
 29 54  1  0
 29 55  1  0
 30 56  1  0
 30 57  1  0
 31 58  1  0
 31 59  1  0
M  END
$$$$
