
     RDKit          3D

 51 51  0  0  0  0  0  0  0  0999 V2000
    0.8796    0.8630   -1.2800 C   0  0  1  0  0  0  0  0  0  0  0  0
    1.5379    2.1394   -0.9781 N   0  0  0  0  0  0  0  0  0  0  0  0
    1.3937   -0.2616   -0.3437 C   0  0  0  0  0  0  0  0  0  0  0  0
    2.8130   -0.7727   -0.7017 C   0  0  0  0  0  0  0  0  0  0  0  0
    3.1476   -2.0703    0.0887 C   0  0  0  0  0  0  0  0  0  0  0  0
    3.9415   -1.7762    1.3663 C   0  0  0  0  0  0  0  0  0  0  0  0
    5.2957   -1.1096    1.0516 C   0  0  0  0  0  0  0  0  0  0  0  0
    5.2767   -0.2695   -0.2406 C   0  0  0  0  0  0  0  0  0  0  0  0
    3.8905    0.3286   -0.5004 C   0  0  0  0  0  0  0  0  0  0  0  0
   -0.6747    0.9968   -1.2593 C   0  0  1  0  0  0  0  0  0  0  0  0
   -1.2368   -0.1225   -1.8959 O   0  0  0  0  0  0  0  0  0  0  0  0
   -1.2654    1.1246    0.1687 C   0  0  0  0  0  0  0  0  0  0  0  0
   -2.7179    1.6698    0.1949 C   0  0  1  0  0  0  0  0  0  0  0  0
   -3.7731    0.7593   -0.4934 C   0  0  0  0  0  0  0  0  0  0  0  0
   -3.8241   -0.7286   -0.0504 C   0  0  0  0  0  0  0  0  0  0  0  0
   -4.7674   -1.5071   -0.9783 C   0  0  0  0  0  0  0  0  0  0  0  0
   -4.2812   -0.8973    1.4053 C   0  0  0  0  0  0  0  0  0  0  0  0
   -3.1471    2.0565    1.5907 C   0  0  0  0  0  0  0  0  0  0  0  0
   -2.3966    1.6781    2.7022 O   0  0  0  0  0  0  0  0  0  0  0  0
   -4.1948    2.7381    1.7542 O   0  0  0  0  0  0  0  0  0  0  0  0
    1.1610    0.5901   -2.3218 H   0  0  0  0  0  0  0  0  0  0  0  0
    1.1781    2.8784   -1.6247 H   0  0  0  0  0  0  0  0  0  0  0  0
    1.3341    2.4380    0.0012 H   0  0  0  0  0  0  0  0  0  0  0  0
    0.6918   -1.1203   -0.4257 H   0  0  0  0  0  0  0  0  0  0  0  0
    1.3706    0.0777    0.7151 H   0  0  0  0  0  0  0  0  0  0  0  0
    2.8079   -1.0519   -1.7794 H   0  0  0  0  0  0  0  0  0  0  0  0
    2.2281   -2.6374    0.3505 H   0  0  0  0  0  0  0  0  0  0  0  0
    3.7574   -2.7430   -0.5547 H   0  0  0  0  0  0  0  0  0  0  0  0
    4.1149   -2.7220    1.9237 H   0  0  0  0  0  0  0  0  0  0  0  0
    3.3395   -1.1072    2.0198 H   0  0  0  0  0  0  0  0  0  0  0  0
    6.0791   -1.8926    0.9542 H   0  0  0  0  0  0  0  0  0  0  0  0
    5.5805   -0.4616    1.9090 H   0  0  0  0  0  0  0  0  0  0  0  0
    6.0270    0.5468   -0.1632 H   0  0  0  0  0  0  0  0  0  0  0  0
    5.5630   -0.9081   -1.1053 H   0  0  0  0  0  0  0  0  0  0  0  0
    3.6285    0.9787    0.3637 H   0  0  0  0  0  0  0  0  0  0  0  0
    3.9400    0.9700   -1.4069 H   0  0  0  0  0  0  0  0  0  0  0  0
   -0.9497    1.9156   -1.8294 H   0  0  0  0  0  0  0  0  0  0  0  0
   -1.1460    0.0216   -2.8741 H   0  0  0  0  0  0  0  0  0  0  0  0
   -0.6421    1.8351    0.7483 H   0  0  0  0  0  0  0  0  0  0  0  0
   -1.2066    0.1523    0.7012 H   0  0  0  0  0  0  0  0  0  0  0  0
   -2.7072    2.6234   -0.3793 H   0  0  0  0  0  0  0  0  0  0  0  0
   -4.7820    1.2104   -0.3627 H   0  0  0  0  0  0  0  0  0  0  0  0
   -3.5819    0.7971   -1.5876 H   0  0  0  0  0  0  0  0  0  0  0  0
   -2.8218   -1.1919   -0.1546 H   0  0  0  0  0  0  0  0  0  0  0  0
   -5.8023   -1.1074   -0.9102 H   0  0  0  0  0  0  0  0  0  0  0  0
   -4.7797   -2.5836   -0.7034 H   0  0  0  0  0  0  0  0  0  0  0  0
   -4.4215   -1.4310   -2.0314 H   0  0  0  0  0  0  0  0  0  0  0  0
   -3.4817   -0.5761    2.1007 H   0  0  0  0  0  0  0  0  0  0  0  0
   -5.2045   -0.3111    1.6010 H   0  0  0  0  0  0  0  0  0  0  0  0
   -4.4858   -1.9664    1.6279 H   0  0  0  0  0  0  0  0  0  0  0  0
   -2.6858    1.9375    3.6376 H   0  0  0  0  0  0  0  0  0  0  0  0
  1  2  1  0
  1  3  1  0
  3  4  1  0
  4  5  1  0
  5  6  1  0
  6  7  1  0
  7  8  1  0
  8  9  1  0
  1 10  1  0
 10 11  1  0
 10 12  1  0
 12 13  1  0
 13 14  1  0
 14 15  1  0
 15 16  1  0
 15 17  1  0
 13 18  1  0
 18 19  1  0
 18 20  2  0
  9  4  1  0
  1 21  1  6
  2 22  1  0
  2 23  1  0
  3 24  1  0
  3 25  1  0
  4 26  1  0
  5 27  1  0
  5 28  1  0
  6 29  1  0
  6 30  1  0
  7 31  1  0
  7 32  1  0
  8 33  1  0
  8 34  1  0
  9 35  1  0
  9 36  1  0
 10 37  1  6
 11 38  1  0
 12 39  1  0
 12 40  1  0
 13 41  1  6
 14 42  1  0
 14 43  1  0
 15 44  1  0
 16 45  1  0
 16 46  1  0
 16 47  1  0
 17 48  1  0
 17 49  1  0
 17 50  1  0
 19 51  1  0
M  END
$$$$
