
     RDKit          3D

 59 62  0  0  0  0  0  0  0  0999 V2000
   -6.7384    1.3387   -2.9976 C   0  0  0  0  0  0  0  0  0  0  0  0
   -6.0600    0.4398   -2.1294 O   0  0  0  0  0  0  0  0  0  0  0  0
   -6.6989   -0.6374   -1.5084 C   0  0  0  0  0  0  0  0  0  0  0  0
   -7.9290   -0.8418   -1.7014 O   0  0  0  0  0  0  0  0  0  0  0  0
   -5.9323   -1.5543   -0.5868 C   0  0  0  0  0  0  0  0  0  0  0  0
   -5.5403   -0.8474    0.7294 C   0  0  0  0  0  0  0  0  0  0  0  0
   -4.3384    0.0868    0.5548 C   0  0  0  0  0  0  0  0  0  0  0  0
   -3.2404   -0.6384   -0.0885 N   0  0  0  0  0  0  0  0  0  0  0  0
   -3.5110   -1.2492   -1.3939 C   0  0  0  0  0  0  0  0  0  0  0  0
   -4.7123   -2.1986   -1.2849 C   0  0  0  0  0  0  0  0  0  0  0  0
   -2.0737   -1.0118    0.6680 C   0  0  0  0  0  0  0  0  0  0  0  0
   -2.2025   -1.3444    1.8781 O   0  0  0  0  0  0  0  0  0  0  0  0
   -0.7235   -1.0009    0.0564 C   0  0  0  0  0  0  0  0  0  0  0  0
   -0.4447   -0.1854   -1.0532 C   0  0  0  0  0  0  0  0  0  0  0  0
    0.8331   -0.1688   -1.6185 C   0  0  0  0  0  0  0  0  0  0  0  0
    1.8608   -0.9615   -1.0819 C   0  0  0  0  0  0  0  0  0  0  0  0
    1.5849   -1.7684    0.0348 C   0  0  0  0  0  0  0  0  0  0  0  0
    0.3072   -1.7848    0.6005 C   0  0  0  0  0  0  0  0  0  0  0  0
    3.1885   -0.9250   -1.6490 N   0  0  0  0  0  0  0  0  0  0  0  0
    3.9783   -2.1549   -1.7513 C   0  0  0  0  0  0  0  0  0  0  0  0
    3.8396    0.3623   -1.9303 C   0  0  0  0  0  0  0  0  0  0  0  0
    3.9695    1.1646   -0.6685 C   0  0  0  0  0  0  0  0  0  0  0  0
    4.8767    0.7898    0.2741 N   0  0  0  0  0  0  0  0  0  0  0  0
    4.9922    1.4650    1.4482 C   0  0  0  0  0  0  0  0  0  0  0  0
    5.9209    1.0961    2.4305 C   0  0  0  0  0  0  0  0  0  0  0  0
    6.7986   -0.0171    2.2430 N   0  0  0  0  0  0  0  0  0  0  0  0
    5.9851    1.8129    3.5851 N   0  0  0  0  0  0  0  0  0  0  0  0
    5.1673    2.8781    3.8070 C   0  0  0  0  0  0  0  0  0  0  0  0
    5.2623    3.6063    5.0288 N   0  0  0  0  0  0  0  0  0  0  0  0
    4.2587    3.2474    2.8647 N   0  0  0  0  0  0  0  0  0  0  0  0
    4.1553    2.5655    1.6961 C   0  0  0  0  0  0  0  0  0  0  0  0
    3.2427    2.9354    0.7609 N   0  0  0  0  0  0  0  0  0  0  0  0
    3.1284    2.2592   -0.4130 C   0  0  0  0  0  0  0  0  0  0  0  0
   -6.0217    2.1025   -3.3628 H   0  0  0  0  0  0  0  0  0  0  0  0
   -7.5599    1.8481   -2.4506 H   0  0  0  0  0  0  0  0  0  0  0  0
   -7.1517    0.7870   -3.8683 H   0  0  0  0  0  0  0  0  0  0  0  0
   -6.6177   -2.3876   -0.3113 H   0  0  0  0  0  0  0  0  0  0  0  0
   -6.4042   -0.2734    1.1303 H   0  0  0  0  0  0  0  0  0  0  0  0
   -5.2762   -1.6200    1.4848 H   0  0  0  0  0  0  0  0  0  0  0  0
   -4.6205    0.9596   -0.0705 H   0  0  0  0  0  0  0  0  0  0  0  0
   -4.0275    0.4846    1.5455 H   0  0  0  0  0  0  0  0  0  0  0  0
   -2.6335   -1.8268   -1.7566 H   0  0  0  0  0  0  0  0  0  0  0  0
   -3.7115   -0.4537   -2.1407 H   0  0  0  0  0  0  0  0  0  0  0  0
   -4.9956   -2.5587   -2.2981 H   0  0  0  0  0  0  0  0  0  0  0  0
   -4.3976   -3.0878   -0.6952 H   0  0  0  0  0  0  0  0  0  0  0  0
   -1.2111    0.4501   -1.4784 H   0  0  0  0  0  0  0  0  0  0  0  0
    1.0143    0.4591   -2.4802 H   0  0  0  0  0  0  0  0  0  0  0  0
    2.3643   -2.3722    0.4814 H   0  0  0  0  0  0  0  0  0  0  0  0
    0.1241   -2.4157    1.4616 H   0  0  0  0  0  0  0  0  0  0  0  0
    4.6334   -2.2530   -0.8602 H   0  0  0  0  0  0  0  0  0  0  0  0
    4.6064   -2.1336   -2.6670 H   0  0  0  0  0  0  0  0  0  0  0  0
    3.3143   -3.0432   -1.8201 H   0  0  0  0  0  0  0  0  0  0  0  0
    4.8587    0.2030   -2.3458 H   0  0  0  0  0  0  0  0  0  0  0  0
    3.2703    0.9179   -2.7049 H   0  0  0  0  0  0  0  0  0  0  0  0
    7.4833   -0.2739    2.9883 H   0  0  0  0  0  0  0  0  0  0  0  0
    6.7745   -0.5913    1.3712 H   0  0  0  0  0  0  0  0  0  0  0  0
    5.9569    3.3285    5.7571 H   0  0  0  0  0  0  0  0  0  0  0  0
    4.6380    4.4242    5.2066 H   0  0  0  0  0  0  0  0  0  0  0  0
    2.3856    2.5686   -1.1368 H   0  0  0  0  0  0  0  0  0  0  0  0
  1  2  1  0
  2  3  1  0
  3  4  2  0
  3  5  1  0
  5  6  1  0
  6  7  1  0
  7  8  1  0
  8  9  1  0
  9 10  1  0
  8 11  1  0
 11 12  2  0
 11 13  1  0
 13 14  2  0
 14 15  1  0
 15 16  2  0
 16 17  1  0
 17 18  2  0
 16 19  1  0
 19 20  1  0
 19 21  1  0
 21 22  1  0
 22 23  2  0
 23 24  1  0
 24 25  2  0
 25 26  1  0
 25 27  1  0
 27 28  2  0
 28 29  1  0
 28 30  1  0
 30 31  2  0
 31 32  1  0
 32 33  2  0
 10  5  1  0
 18 13  1  0
 33 22  1  0
 31 24  1  0
  1 34  1  0
  1 35  1  0
  1 36  1  0
  5 37  1  0
  6 38  1  0
  6 39  1  0
  7 40  1  0
  7 41  1  0
  9 42  1  0
  9 43  1  0
 10 44  1  0
 10 45  1  0
 14 46  1  0
 15 47  1  0
 17 48  1  0
 18 49  1  0
 20 50  1  0
 20 51  1  0
 20 52  1  0
 21 53  1  0
 21 54  1  0
 26 55  1  0
 26 56  1  0
 29 57  1  0
 29 58  1  0
 33 59  1  0
M  END
$$$$
