
     RDKit          3D

 42 45  0  0  0  0  0  0  0  0999 V2000
    8.0247    0.1468    1.6063 N   0  0  0  0  0  0  0  0  0  0  0  0
    7.3529   -0.2302    0.4016 C   0  0  0  0  0  0  0  0  0  0  0  0
    8.0609   -0.5063   -0.6495 N   0  0  0  0  0  0  0  0  0  0  0  0
    5.8712   -0.3103    0.3662 C   0  0  0  0  0  0  0  0  0  0  0  0
    5.1566    0.0710   -0.7959 C   0  0  0  0  0  0  0  0  0  0  0  0
    3.7677   -0.0207   -0.7661 C   0  0  0  0  0  0  0  0  0  0  0  0
    3.0911   -0.4592    0.3294 C   0  0  0  0  0  0  0  0  0  0  0  0
    3.7492   -0.8442    1.4922 C   0  0  0  0  0  0  0  0  0  0  0  0
    5.1545   -0.7657    1.5070 C   0  0  0  0  0  0  0  0  0  0  0  0
    1.7668   -0.4545    0.0963 N   0  0  0  0  0  0  0  0  0  0  0  0
    1.6842    0.0139   -1.1782 C   0  0  0  0  0  0  0  0  0  0  0  0
    2.8937    0.2809   -1.7337 N   0  0  0  0  0  0  0  0  0  0  0  0
    0.4131    0.1675   -1.9123 C   0  0  0  0  0  0  0  0  0  0  0  0
    0.4499    0.3287   -3.1616 O   0  0  0  0  0  0  0  0  0  0  0  0
   -0.9030    0.1190   -1.2455 C   0  0  0  0  0  0  0  0  0  0  0  0
   -2.0541   -0.1138   -1.9325 N   0  0  0  0  0  0  0  0  0  0  0  0
   -2.9961   -0.0408   -0.9759 C   0  0  0  0  0  0  0  0  0  0  0  0
   -2.4278    0.2368    0.2280 C   0  0  0  0  0  0  0  0  0  0  0  0
   -1.1021    0.3453    0.0796 N   0  0  0  0  0  0  0  0  0  0  0  0
   -3.1827    0.3946    1.3852 C   0  0  0  0  0  0  0  0  0  0  0  0
   -4.5779    0.2474    1.2787 C   0  0  0  0  0  0  0  0  0  0  0  0
   -5.1862   -0.0520    0.0282 C   0  0  0  0  0  0  0  0  0  0  0  0
   -4.3721   -0.1916   -1.1234 C   0  0  0  0  0  0  0  0  0  0  0  0
   -6.6640   -0.1947   -0.0672 C   0  0  0  0  0  0  0  0  0  0  0  0
   -7.5156    0.5699    0.8031 N   0  0  0  0  0  4  0  0  0  0  0  0
   -7.1907   -1.0750   -0.8687 N   0  0  0  0  0  4  0  0  0  0  0  0
    9.0683    0.1623    1.6450 H   0  0  0  0  0  0  0  0  0  0  0  0
    7.4927    0.4651    2.4462 H   0  0  0  0  0  0  0  0  0  0  0  0
    7.6383   -0.8075   -1.5556 H   0  0  0  0  0  0  0  0  0  0  0  0
    5.6582    0.4433   -1.6799 H   0  0  0  0  0  0  0  0  0  0  0  0
    3.2000   -1.1955    2.3562 H   0  0  0  0  0  0  0  0  0  0  0  0
    5.6819   -1.0777    2.3992 H   0  0  0  0  0  0  0  0  0  0  0  0
    3.1003    0.6372   -2.6936 H   0  0  0  0  0  0  0  0  0  0  0  0
   -0.4063    0.5956    0.8157 H   0  0  0  0  0  0  0  0  0  0  0  0
   -2.7146    0.6215    2.3342 H   0  0  0  0  0  0  0  0  0  0  0  0
   -5.1801    0.3549    2.1717 H   0  0  0  0  0  0  0  0  0  0  0  0
   -4.7937   -0.3861   -2.1012 H   0  0  0  0  0  0  0  0  0  0  0  0
   -7.0788    1.4969    1.0105 H   0  0  0  0  0  0  0  0  0  0  0  0
   -7.6605    0.0392    1.6917 H   0  0  0  0  0  0  0  0  0  0  0  0
   -8.4401    0.7443    0.3468 H   0  0  0  0  0  0  0  0  0  0  0  0
   -6.6037   -1.6987   -1.4659 H   0  0  0  0  0  0  0  0  0  0  0  0
   -8.2260   -1.2063   -0.9125 H   0  0  0  0  0  0  0  0  0  0  0  0
  1  2  1  0
  2  3  2  3
  2  4  1  0
  4  5  2  0
  5  6  1  0
  6  7  2  0
  7  8  1  0
  8  9  2  0
  7 10  1  0
 10 11  2  0
 11 12  1  0
 11 13  1  0
 13 14  2  0
 13 15  1  0
 15 16  2  0
 16 17  1  0
 17 18  2  0
 18 19  1  0
 18 20  1  0
 20 21  2  0
 21 22  1  0
 22 23  2  0
 22 24  1  0
 24 25  1  0
 24 26  2  3
  9  4  1  0
 19 15  1  0
 12  6  1  0
 23 17  1  0
  1 27  1  0
  1 28  1  0
  3 29  1  0
  5 30  1  0
  8 31  1  0
  9 32  1  0
 12 33  1  0
 19 34  1  0
 20 35  1  0
 21 36  1  0
 23 37  1  0
 25 38  1  0
 25 39  1  0
 25 40  1  0
 26 41  1  0
 26 42  1  0
M  CHG  2  25   1  26   1
M  END
$$$$
