
     RDKit          3D

 27 28  0  0  0  0  0  0  0  0999 V2000
    5.6113    0.5219   -0.5726 N   0  0  0  0  0  0  0  0  0  0  0  0
    4.1476    1.0814   -1.3024 S   0  0  0  0  0  6  0  0  0  0  0  0
    4.1214    2.5839   -1.3131 O   0  0  0  0  0  0  0  0  0  0  0  0
    4.0748    0.5778   -2.7164 O   0  0  0  0  0  0  0  0  0  0  0  0
    2.7735    0.4790   -0.3992 C   0  0  0  0  0  0  0  0  0  0  0  0
    1.8691   -0.3895   -0.9019 N   0  0  0  0  0  0  0  0  0  0  0  0
    0.9125   -0.7085   -0.0323 N   0  0  0  0  0  0  0  0  0  0  0  0
    1.0596   -0.0930    1.1618 C   0  0  0  0  0  0  0  0  0  0  0  0
    0.1606   -0.2619    2.2591 N   0  0  0  0  0  0  0  0  0  0  0  0
   -1.2462   -1.2639    2.1325 S   0  0  0  0  0  6  0  0  0  0  0  0
   -0.8131   -2.6809    1.8793 O   0  0  0  0  0  0  0  0  0  0  0  0
   -2.0165   -1.2074    3.4212 O   0  0  0  0  0  0  0  0  0  0  0  0
   -2.2736   -0.6897    0.8234 C   0  0  0  0  0  0  0  0  0  0  0  0
   -2.4032    0.6865    0.5872 C   0  0  0  0  0  0  0  0  0  0  0  0
   -3.2148    1.1470   -0.4543 C   0  0  0  0  0  0  0  0  0  0  0  0
   -3.9030    0.2361   -1.2608 C   0  0  0  0  0  0  0  0  0  0  0  0
   -3.7816   -1.1366   -1.0254 C   0  0  0  0  0  0  0  0  0  0  0  0
   -2.9701   -1.6001    0.0151 C   0  0  0  0  0  0  0  0  0  0  0  0
    2.4179    0.9012    1.1925 S   0  0  0  0  0  0  0  0  0  0  0  0
    5.6532    0.9363    0.3854 H   0  0  0  0  0  0  0  0  0  0  0  0
    6.4014    0.9375   -1.1151 H   0  0  0  0  0  0  0  0  0  0  0  0
    0.3401    0.2455    3.1536 H   0  0  0  0  0  0  0  0  0  0  0  0
   -1.8760    1.4007    1.2069 H   0  0  0  0  0  0  0  0  0  0  0  0
   -3.3106    2.2098   -0.6356 H   0  0  0  0  0  0  0  0  0  0  0  0
   -4.5312    0.5935   -2.0665 H   0  0  0  0  0  0  0  0  0  0  0  0
   -4.3167   -1.8413   -1.6488 H   0  0  0  0  0  0  0  0  0  0  0  0
   -2.8863   -2.6652    0.1886 H   0  0  0  0  0  0  0  0  0  0  0  0
  1  2  1  0
  2  3  2  0
  2  4  2  0
  2  5  1  0
  5  6  2  0
  6  7  1  0
  7  8  2  0
  8  9  1  0
  9 10  1  0
 10 11  2  0
 10 12  2  0
 10 13  1  0
 13 14  2  0
 14 15  1  0
 15 16  2  0
 16 17  1  0
 17 18  2  0
  8 19  1  0
 19  5  1  0
 18 13  1  0
  1 20  1  0
  1 21  1  0
  9 22  1  0
 14 23  1  0
 15 24  1  0
 16 25  1  0
 17 26  1  0
 18 27  1  0
M  END
$$$$
