
     RDKit          3D

 71 75  0  0  0  0  0  0  0  0999 V2000
    1.9709    0.4240   -1.9267 C   0  0  1  0  0  0  0  0  0  0  0  0
    1.9898    1.2396   -0.2942 S   0  0  0  0  0  0  0  0  0  0  0  0
    3.6552    1.9511   -0.5943 C   0  0  0  0  0  0  0  0  0  0  0  0
    4.7365    0.8940   -0.7930 C   0  0  0  0  0  0  0  0  0  0  0  0
    6.0629    1.1205   -0.0991 C   0  0  0  0  0  0  0  0  0  0  0  0
    6.3225   -0.1365    1.1985 S   0  0  0  0  0  0  0  0  0  0  0  0
    7.8825    0.5667    1.7349 C   0  0  0  0  0  0  0  0  0  0  0  0
    8.0006    1.5097    2.6865 N   0  0  0  0  0  0  0  0  0  0  0  0
    9.3021    1.7603    2.7592 N   0  0  0  0  0  0  0  0  0  0  0  0
    9.9610    1.0060    1.8907 N   0  0  0  0  0  0  0  0  0  0  0  0
    9.0927    0.2436    1.2520 N   0  0  0  0  0  0  0  0  0  0  0  0
    9.4213   -0.6628    0.1603 C   0  0  0  0  0  0  0  0  0  0  0  0
    4.4852   -0.2032   -1.5594 C   0  0  0  0  0  0  0  0  0  0  0  0
    3.1429   -0.4095   -2.0112 N   0  0  0  0  0  0  0  0  0  0  0  0
    2.2643   -1.5549   -2.3505 C   0  0  0  0  0  0  0  0  0  0  0  0
    2.4420   -2.7653   -2.6462 O   0  0  0  0  0  0  0  0  0  0  0  0
    1.0633   -0.6820   -2.1446 C   0  0  1  0  0  0  0  0  0  0  0  0
    0.3012   -1.0837   -0.9596 N   0  0  0  0  0  0  0  0  0  0  0  0
   -0.9468   -0.4640   -0.6229 C   0  0  0  0  0  0  0  0  0  0  0  0
   -1.4774    0.3629   -1.4149 O   0  0  0  0  0  0  0  0  0  0  0  0
   -1.5742   -0.7343    0.7193 C   0  0  2  0  0  0  0  0  0  0  0  0
   -3.0237   -0.5010    0.6822 N   0  0  0  0  0  0  0  0  0  0  0  0
   -3.9087   -1.3286   -0.0890 C   0  0  0  0  0  0  0  0  0  0  0  0
   -3.4742   -2.3873   -0.6203 O   0  0  0  0  0  0  0  0  0  0  0  0
   -5.2968   -0.9758   -0.2352 N   0  0  0  0  0  0  0  0  0  0  0  0
   -6.3010   -2.0351   -0.4084 C   0  0  0  0  0  0  0  0  0  0  0  0
   -7.6285   -1.6342    0.2463 C   0  0  0  0  0  0  0  0  0  0  0  0
   -8.0943   -0.3424   -0.2750 N   0  0  0  0  0  0  0  0  0  0  0  0
   -9.5230   -0.1180   -0.5267 C   0  0  0  0  0  0  0  0  0  0  0  0
   -9.8044   -0.1116   -2.0250 C   0  0  0  0  0  0  0  0  0  0  0  0
   -7.1359    0.7139   -0.4666 C   0  0  0  0  0  0  0  0  0  0  0  0
   -7.5142    1.8961   -0.6897 O   0  0  0  0  0  0  0  0  0  0  0  0
   -5.7031    0.3945   -0.4191 C   0  0  0  0  0  0  0  0  0  0  0  0
   -4.8493    1.3100   -0.5733 O   0  0  0  0  0  0  0  0  0  0  0  0
   -0.9071    0.1367    1.7633 C   0  0  0  0  0  0  0  0  0  0  0  0
   -0.0781   -0.4406    2.7412 C   0  0  0  0  0  0  0  0  0  0  0  0
    0.5836    0.3646    3.6731 C   0  0  0  0  0  0  0  0  0  0  0  0
    0.4317    1.7539    3.6376 C   0  0  0  0  0  0  0  0  0  0  0  0
    1.1005    2.5431    4.5704 O   0  0  0  0  0  0  0  0  0  0  0  0
   -0.3879    2.3386    2.6637 C   0  0  0  0  0  0  0  0  0  0  0  0
   -1.0504    1.5368    1.7301 C   0  0  0  0  0  0  0  0  0  0  0  0
    5.4953   -1.2481   -1.8466 C   0  0  0  0  0  0  0  0  0  0  0  0
    6.8185   -0.9118   -2.1122 O   0  0  0  0  0  0  0  0  0  0  0  0
    5.1488   -2.4577   -1.8955 O   0  0  0  0  0  0  0  0  0  0  0  0
    1.9497    1.1612   -2.7606 H   0  0  0  0  0  0  0  0  0  0  0  0
    3.8925    2.6058    0.2699 H   0  0  0  0  0  0  0  0  0  0  0  0
    3.6158    2.5987   -1.4959 H   0  0  0  0  0  0  0  0  0  0  0  0
    6.8958    1.1189   -0.8296 H   0  0  0  0  0  0  0  0  0  0  0  0
    6.0836    2.1210    0.3829 H   0  0  0  0  0  0  0  0  0  0  0  0
   10.4810   -0.9841    0.2410 H   0  0  0  0  0  0  0  0  0  0  0  0
    9.2722   -0.1447   -0.8096 H   0  0  0  0  0  0  0  0  0  0  0  0
    8.7733   -1.5634    0.2025 H   0  0  0  0  0  0  0  0  0  0  0  0
    0.4413   -0.6041   -3.0631 H   0  0  0  0  0  0  0  0  0  0  0  0
    0.7079   -1.7831   -0.2964 H   0  0  0  0  0  0  0  0  0  0  0  0
   -1.4079   -1.8052    0.9719 H   0  0  0  0  0  0  0  0  0  0  0  0
   -3.4453    0.2411    1.2853 H   0  0  0  0  0  0  0  0  0  0  0  0
   -6.4598   -2.2162   -1.4935 H   0  0  0  0  0  0  0  0  0  0  0  0
   -5.9516   -2.9823    0.0583 H   0  0  0  0  0  0  0  0  0  0  0  0
   -7.4830   -1.5501    1.3450 H   0  0  0  0  0  0  0  0  0  0  0  0
   -8.3788   -2.4317    0.0541 H   0  0  0  0  0  0  0  0  0  0  0  0
  -10.1339   -0.9167   -0.0525 H   0  0  0  0  0  0  0  0  0  0  0  0
   -9.8421    0.8470   -0.0770 H   0  0  0  0  0  0  0  0  0  0  0  0
   -9.4912   -1.0781   -2.4740 H   0  0  0  0  0  0  0  0  0  0  0  0
  -10.8916    0.0301   -2.2001 H   0  0  0  0  0  0  0  0  0  0  0  0
   -9.2532    0.7157   -2.5195 H   0  0  0  0  0  0  0  0  0  0  0  0
    0.0647   -1.5133    2.7786 H   0  0  0  0  0  0  0  0  0  0  0  0
    1.2200   -0.0916    4.4206 H   0  0  0  0  0  0  0  0  0  0  0  0
    1.0125    3.5527    4.5698 H   0  0  0  0  0  0  0  0  0  0  0  0
   -0.5066    3.4139    2.6249 H   0  0  0  0  0  0  0  0  0  0  0  0
   -1.6664    2.0072    0.9737 H   0  0  0  0  0  0  0  0  0  0  0  0
    7.5051   -1.6263   -2.3226 H   0  0  0  0  0  0  0  0  0  0  0  0
  1  2  1  0
  2  3  1  0
  3  4  1  0
  4  5  1  0
  5  6  1  0
  6  7  1  0
  7  8  2  0
  8  9  1  0
  9 10  2  0
 10 11  1  0
 11 12  1  0
  4 13  2  0
 13 14  1  0
 14 15  1  0
 15 16  2  0
 15 17  1  0
 17 18  1  0
 18 19  1  0
 19 20  2  0
 19 21  1  0
 21 22  1  0
 22 23  1  0
 23 24  2  0
 23 25  1  0
 25 26  1  0
 26 27  1  0
 27 28  1  0
 28 29  1  0
 29 30  1  0
 28 31  1  0
 31 32  2  0
 31 33  1  0
 33 34  2  0
 21 35  1  0
 35 36  2  0
 36 37  1  0
 37 38  2  0
 38 39  1  0
 38 40  1  0
 40 41  2  0
 13 42  1  0
 42 43  1  0
 42 44  2  0
 14  1  1  0
 33 25  1  0
 41 35  1  0
 17  1  1  0
 11  7  1  0
  1 45  1  6
  3 46  1  0
  3 47  1  0
  5 48  1  0
  5 49  1  0
 12 50  1  0
 12 51  1  0
 12 52  1  0
 17 53  1  6
 18 54  1  0
 21 55  1  1
 22 56  1  0
 26 57  1  0
 26 58  1  0
 27 59  1  0
 27 60  1  0
 29 61  1  0
 29 62  1  0
 30 63  1  0
 30 64  1  0
 30 65  1  0
 36 66  1  0
 37 67  1  0
 39 68  1  0
 40 69  1  0
 41 70  1  0
 43 71  1  0
M  END
$$$$
