
     RDKit          3D

 44 44  0  0  0  0  0  0  0  0999 V2000
    6.4798    3.5729    0.7370 O   0  0  0  0  0  0  0  0  0  0  0  0
    5.4979    2.7343    0.3273 N   0  0  0  0  0  0  0  0  0  0  0  0
    5.8210    1.5546   -0.4204 C   0  0  0  0  0  0  0  0  0  0  0  0
    7.0058    1.3777   -0.8106 O   0  0  0  0  0  0  0  0  0  0  0  0
    4.8019    0.5488   -0.7813 C   0  0  0  0  0  0  0  0  0  0  0  0
    3.6255    0.4351   -0.1499 C   0  0  0  0  0  0  0  0  0  0  0  0
    2.6198   -0.5971   -0.5052 C   0  0  0  0  0  0  0  0  0  0  0  0
    2.4800   -1.0707   -1.9340 C   0  0  0  0  0  0  0  0  0  0  0  0
    1.8332   -1.0769    0.4791 C   0  0  0  0  0  0  0  0  0  0  0  0
    0.8172   -2.1849    0.3115 C   0  0  1  0  0  0  0  0  0  0  0  0
    1.4802   -3.5425    0.5771 C   0  0  0  0  0  0  0  0  0  0  0  0
   -0.3505   -1.9444    1.2462 C   0  0  0  0  0  0  0  0  0  0  0  0
   -0.3164   -2.4335    2.4098 O   0  0  0  0  0  0  0  0  0  0  0  0
   -1.5143   -1.1050    0.8513 C   0  0  0  0  0  0  0  0  0  0  0  0
   -1.4448   -0.2127   -0.2330 C   0  0  0  0  0  0  0  0  0  0  0  0
   -2.5473    0.5708   -0.5842 C   0  0  0  0  0  0  0  0  0  0  0  0
   -3.7537    0.4891    0.1395 C   0  0  0  0  0  0  0  0  0  0  0  0
   -4.8998    1.3024   -0.2259 N   0  0  0  0  0  0  0  0  0  0  0  0
   -6.2516    0.9235    0.2042 C   0  0  0  0  0  0  0  0  0  0  0  0
   -4.7269    2.5173   -1.0322 C   0  0  0  0  0  0  0  0  0  0  0  0
   -3.8158   -0.4015    1.2297 C   0  0  0  0  0  0  0  0  0  0  0  0
   -2.7121   -1.1832    1.5807 C   0  0  0  0  0  0  0  0  0  0  0  0
    6.5802    4.2272   -0.0010 H   0  0  0  0  0  0  0  0  0  0  0  0
    4.5081    2.9853    0.5420 H   0  0  0  0  0  0  0  0  0  0  0  0
    5.0680   -0.1633   -1.5523 H   0  0  0  0  0  0  0  0  0  0  0  0
    3.4169    1.0605    0.7084 H   0  0  0  0  0  0  0  0  0  0  0  0
    1.4309   -0.9603   -2.2774 H   0  0  0  0  0  0  0  0  0  0  0  0
    3.0923   -0.4642   -2.6316 H   0  0  0  0  0  0  0  0  0  0  0  0
    2.7930   -2.1321   -2.0160 H   0  0  0  0  0  0  0  0  0  0  0  0
    1.9895   -0.7132    1.4901 H   0  0  0  0  0  0  0  0  0  0  0  0
    0.4190   -2.2222   -0.7226 H   0  0  0  0  0  0  0  0  0  0  0  0
    0.7300   -4.3574    0.4885 H   0  0  0  0  0  0  0  0  0  0  0  0
    2.2827   -3.7294   -0.1675 H   0  0  0  0  0  0  0  0  0  0  0  0
    1.9291   -3.5739    1.5936 H   0  0  0  0  0  0  0  0  0  0  0  0
   -0.5364   -0.1009   -0.8082 H   0  0  0  0  0  0  0  0  0  0  0  0
   -2.4481    1.2355   -1.4310 H   0  0  0  0  0  0  0  0  0  0  0  0
   -6.3641    1.1001    1.2943 H   0  0  0  0  0  0  0  0  0  0  0  0
   -7.0300    1.5132   -0.3248 H   0  0  0  0  0  0  0  0  0  0  0  0
   -6.4338   -0.1483   -0.0231 H   0  0  0  0  0  0  0  0  0  0  0  0
   -5.6504    3.1338   -1.0471 H   0  0  0  0  0  0  0  0  0  0  0  0
   -4.4760    2.2433   -2.0783 H   0  0  0  0  0  0  0  0  0  0  0  0
   -3.9156    3.1430   -0.6033 H   0  0  0  0  0  0  0  0  0  0  0  0
   -4.7132   -0.4934    1.8254 H   0  0  0  0  0  0  0  0  0  0  0  0
   -2.8009   -1.8573    2.4238 H   0  0  0  0  0  0  0  0  0  0  0  0
  1  2  1  0
  2  3  1  0
  3  4  2  0
  3  5  1  0
  5  6  2  0
  6  7  1  0
  7  8  1  0
  7  9  2  0
  9 10  1  0
 10 11  1  0
 10 12  1  0
 12 13  2  0
 12 14  1  0
 14 15  2  0
 15 16  1  0
 16 17  2  0
 17 18  1  0
 18 19  1  0
 18 20  1  0
 17 21  1  0
 21 22  2  0
 22 14  1  0
  1 23  1  0
  2 24  1  0
  5 25  1  0
  6 26  1  0
  8 27  1  0
  8 28  1  0
  8 29  1  0
  9 30  1  0
 10 31  1  6
 11 32  1  0
 11 33  1  0
 11 34  1  0
 15 35  1  0
 16 36  1  0
 19 37  1  0
 19 38  1  0
 19 39  1  0
 20 40  1  0
 20 41  1  0
 20 42  1  0
 21 43  1  0
 22 44  1  0
M  END
$$$$
