
     RDKit          3D

 38 41  0  0  0  0  0  0  0  0999 V2000
    2.3380   -1.0602    1.7919 N   0  0  0  0  0  0  0  0  0  0  0  0
    3.5554   -0.3688    1.3779 C   0  0  0  0  0  0  0  0  0  0  0  0
    3.5345   -0.0717   -0.1250 C   0  0  0  0  0  0  0  0  0  0  0  0
    2.5459    0.9595   -0.4460 N   0  0  0  0  0  0  0  0  0  0  0  0
    1.1277    0.7561   -0.3326 C   0  0  0  0  0  0  0  0  0  0  0  0
    0.5367   -0.4303   -0.8549 C   0  0  0  0  0  0  0  0  0  0  0  0
   -0.8620   -0.6528   -0.7975 C   0  0  0  0  0  0  0  0  0  0  0  0
   -1.4389   -1.8873   -1.3653 C   0  0  0  0  0  0  0  0  0  0  0  0
   -2.5868   -1.9706   -2.1324 C   0  0  0  0  0  0  0  0  0  0  0  0
   -2.7125   -3.2957   -2.4988 C   0  0  0  0  0  0  0  0  0  0  0  0
   -1.6344   -3.9608   -1.9509 C   0  0  0  0  0  0  0  0  0  0  0  0
   -0.8583   -3.0992   -1.2696 N   0  0  0  0  0  0  0  0  0  0  0  0
   -1.6482    0.3452   -0.2045 C   0  0  0  0  0  0  0  0  0  0  0  0
   -3.0684    0.4686    0.1533 C   0  0  0  0  0  0  0  0  0  0  0  0
   -3.9597   -0.4030   -0.0186 O   0  0  0  0  0  0  0  0  0  0  0  0
   -3.2944    1.7123    0.8265 N   0  0  0  0  0  0  0  0  0  0  0  0
   -1.9926    2.2897    0.8905 C   0  0  0  0  0  0  0  0  0  0  0  0
   -1.5978    3.4660    1.5221 C   0  0  0  0  0  0  0  0  0  0  0  0
   -0.2234    3.7863    1.5209 C   0  0  0  0  0  0  0  0  0  0  0  0
    0.7263    2.9290    0.9080 C   0  0  0  0  0  0  0  0  0  0  0  0
    2.0398    3.2542    0.9918 F   0  0  0  0  0  0  0  0  0  0  0  0
    0.2959    1.7369    0.2697 C   0  0  0  0  0  0  0  0  0  0  0  0
   -1.0685    1.4786    0.2910 C   0  0  0  0  0  0  0  0  0  0  0  0
    2.3491   -2.0207    1.3777 H   0  0  0  0  0  0  0  0  0  0  0  0
    2.3783   -1.1823    2.8296 H   0  0  0  0  0  0  0  0  0  0  0  0
    4.4412   -0.9997    1.6143 H   0  0  0  0  0  0  0  0  0  0  0  0
    3.6507    0.5859    1.9404 H   0  0  0  0  0  0  0  0  0  0  0  0
    4.5417    0.2952   -0.4194 H   0  0  0  0  0  0  0  0  0  0  0  0
    3.3440   -0.9976   -0.7063 H   0  0  0  0  0  0  0  0  0  0  0  0
    2.8959    1.8855   -0.7787 H   0  0  0  0  0  0  0  0  0  0  0  0
    1.1626   -1.1671   -1.3399 H   0  0  0  0  0  0  0  0  0  0  0  0
   -3.2388   -1.1591   -2.4265 H   0  0  0  0  0  0  0  0  0  0  0  0
   -3.4934   -3.7253   -3.1117 H   0  0  0  0  0  0  0  0  0  0  0  0
   -1.4242   -5.0172   -2.0540 H   0  0  0  0  0  0  0  0  0  0  0  0
    0.0237   -3.3346   -0.7621 H   0  0  0  0  0  0  0  0  0  0  0  0
   -4.1772    2.0598    1.2622 H   0  0  0  0  0  0  0  0  0  0  0  0
   -2.3198    4.1057    2.0123 H   0  0  0  0  0  0  0  0  0  0  0  0
    0.1116    4.6892    2.0148 H   0  0  0  0  0  0  0  0  0  0  0  0
  1  2  1  0
  2  3  1  0
  3  4  1  0
  4  5  1  0
  5  6  2  0
  6  7  1  0
  7  8  1  0
  8  9  2  0
  9 10  1  0
 10 11  2  0
 11 12  1  0
  7 13  2  0
 13 14  1  0
 14 15  2  0
 14 16  1  0
 16 17  1  0
 17 18  1  0
 18 19  2  0
 19 20  1  0
 20 21  1  0
 20 22  2  0
 22 23  1  0
 22  5  1  0
 12  8  1  0
 23 13  1  0
 23 17  2  0
  1 24  1  0
  1 25  1  0
  2 26  1  0
  2 27  1  0
  3 28  1  0
  3 29  1  0
  4 30  1  0
  6 31  1  0
  9 32  1  0
 10 33  1  0
 11 34  1  0
 12 35  1  0
 16 36  1  0
 18 37  1  0
 19 38  1  0
M  END
$$$$
