
     RDKit          3D

 57 60  0  0  0  0  0  0  0  0999 V2000
   -0.6744    1.1284   -0.4402 C   0  0  1  0  0  0  0  0  0  0  0  0
   -0.6301    0.2244   -1.5139 O   0  0  0  0  0  0  0  0  0  0  0  0
   -2.1200    1.6425   -0.2343 C   0  0  0  0  0  0  0  0  0  0  0  0
   -3.0537    0.6920    0.4049 N   0  0  0  0  0  0  0  0  0  0  0  0
   -3.3037   -0.5692   -0.3290 C   0  0  0  0  0  0  0  0  0  0  0  0
   -3.9328   -0.3171   -1.7169 C   0  0  0  0  0  0  0  0  0  0  0  0
   -5.2742    0.4366   -1.6156 C   0  0  0  0  0  0  0  0  0  0  0  0
   -6.0541    0.1198   -0.3234 C   0  0  0  0  0  0  0  0  0  0  0  0
   -5.7475   -1.2888    0.1964 C   0  0  0  0  0  0  0  0  0  0  0  0
   -4.2452   -1.4856    0.5014 C   0  0  0  0  0  0  0  0  0  0  0  0
   -0.0735    0.4998    0.8318 C   0  0  0  0  0  0  0  0  0  0  0  0
    1.3567    0.2313    0.6515 N   0  0  0  0  0  0  0  0  0  0  0  0
    1.9315   -0.9470    0.2968 C   0  0  0  0  0  0  0  0  0  0  0  0
    3.3081   -0.8144    0.2126 C   0  0  0  0  0  0  0  0  0  0  0  0
    4.2405   -1.9050   -0.2205 C   0  0  0  0  0  0  0  0  0  0  0  0
    3.5603   -3.2790   -0.0748 C   0  0  0  0  0  0  0  0  0  0  0  0
    2.1248   -3.2649   -0.6381 C   0  0  0  0  0  0  0  0  0  0  0  0
    1.2265   -2.2631    0.1134 C   0  0  0  0  0  0  0  0  0  0  0  0
    3.5787    0.5111    0.4737 C   0  0  0  0  0  0  0  0  0  0  0  0
    2.3745    1.1190    0.7418 C   0  0  0  0  0  0  0  0  0  0  0  0
    2.3054    2.4803    1.0494 C   0  0  0  0  0  0  0  0  0  0  0  0
    3.5039    3.2156    1.0733 C   0  0  0  0  0  0  0  0  0  0  0  0
    4.7420    2.5926    0.7777 C   0  0  0  0  0  0  0  0  0  0  0  0
    6.0146    3.3828    0.8429 C   0  0  0  0  0  0  0  0  0  0  0  0
    4.7822    1.2130    0.4846 C   0  0  0  0  0  0  0  0  0  0  0  0
   -0.0655    2.0263   -0.7010 H   0  0  0  0  0  0  0  0  0  0  0  0
    0.2936    0.2457   -1.8775 H   0  0  0  0  0  0  0  0  0  0  0  0
   -2.0675    2.5463    0.4117 H   0  0  0  0  0  0  0  0  0  0  0  0
   -2.5330    2.0039   -1.1983 H   0  0  0  0  0  0  0  0  0  0  0  0
   -2.7106    0.4831    1.3707 H   0  0  0  0  0  0  0  0  0  0  0  0
   -2.3516   -1.1243   -0.4583 H   0  0  0  0  0  0  0  0  0  0  0  0
   -3.2370    0.2290   -2.3863 H   0  0  0  0  0  0  0  0  0  0  0  0
   -4.1108   -1.3015   -2.2042 H   0  0  0  0  0  0  0  0  0  0  0  0
   -5.0872    1.5315   -1.6606 H   0  0  0  0  0  0  0  0  0  0  0  0
   -5.8975    0.1719   -2.4974 H   0  0  0  0  0  0  0  0  0  0  0  0
   -5.7909    0.8601    0.4636 H   0  0  0  0  0  0  0  0  0  0  0  0
   -7.1446    0.2151   -0.5164 H   0  0  0  0  0  0  0  0  0  0  0  0
   -6.0692   -2.0284   -0.5699 H   0  0  0  0  0  0  0  0  0  0  0  0
   -6.3422   -1.4824    1.1153 H   0  0  0  0  0  0  0  0  0  0  0  0
   -3.9891   -2.5478    0.2929 H   0  0  0  0  0  0  0  0  0  0  0  0
   -4.0697   -1.3350    1.5888 H   0  0  0  0  0  0  0  0  0  0  0  0
   -0.6000   -0.4434    1.0860 H   0  0  0  0  0  0  0  0  0  0  0  0
   -0.2118    1.1887    1.6928 H   0  0  0  0  0  0  0  0  0  0  0  0
    5.1647   -1.8794    0.3951 H   0  0  0  0  0  0  0  0  0  0  0  0
    4.5159   -1.7377   -1.2838 H   0  0  0  0  0  0  0  0  0  0  0  0
    4.1610   -4.0429   -0.6136 H   0  0  0  0  0  0  0  0  0  0  0  0
    3.5296   -3.5650    0.9997 H   0  0  0  0  0  0  0  0  0  0  0  0
    1.6858   -4.2823   -0.5549 H   0  0  0  0  0  0  0  0  0  0  0  0
    2.1572   -2.9951   -1.7167 H   0  0  0  0  0  0  0  0  0  0  0  0
    0.9722   -2.6723    1.1144 H   0  0  0  0  0  0  0  0  0  0  0  0
    0.2864   -2.1189   -0.4589 H   0  0  0  0  0  0  0  0  0  0  0  0
    1.3625    2.9648    1.2650 H   0  0  0  0  0  0  0  0  0  0  0  0
    3.4697    4.2697    1.3188 H   0  0  0  0  0  0  0  0  0  0  0  0
    6.7720    2.9646    0.1461 H   0  0  0  0  0  0  0  0  0  0  0  0
    6.4165    3.3500    1.8770 H   0  0  0  0  0  0  0  0  0  0  0  0
    5.8327    4.4409    0.5578 H   0  0  0  0  0  0  0  0  0  0  0  0
    5.7176    0.7096    0.2735 H   0  0  0  0  0  0  0  0  0  0  0  0
  1  2  1  0
  1  3  1  0
  3  4  1  0
  4  5  1  0
  5  6  1  0
  6  7  1  0
  7  8  1  0
  8  9  1  0
  9 10  1  0
  1 11  1  0
 11 12  1  0
 12 13  1  0
 13 14  2  0
 14 15  1  0
 15 16  1  0
 16 17  1  0
 17 18  1  0
 14 19  1  0
 19 20  2  0
 20 21  1  0
 21 22  2  0
 22 23  1  0
 23 24  1  0
 23 25  2  0
 10  5  1  0
 20 12  1  0
 18 13  1  0
 25 19  1  0
  1 26  1  6
  2 27  1  0
  3 28  1  0
  3 29  1  0
  4 30  1  0
  5 31  1  0
  6 32  1  0
  6 33  1  0
  7 34  1  0
  7 35  1  0
  8 36  1  0
  8 37  1  0
  9 38  1  0
  9 39  1  0
 10 40  1  0
 10 41  1  0
 11 42  1  0
 11 43  1  0
 15 44  1  0
 15 45  1  0
 16 46  1  0
 16 47  1  0
 17 48  1  0
 17 49  1  0
 18 50  1  0
 18 51  1  0
 21 52  1  0
 22 53  1  0
 24 54  1  0
 24 55  1  0
 24 56  1  0
 25 57  1  0
M  END
$$$$
