
     RDKit          3D

 49 50  0  0  0  0  0  0  0  0999 V2000
   -0.6008   -4.8927    1.1500 C   0  0  0  0  0  0  0  0  0  0  0  0
   -0.6742   -4.0212   -0.0156 N   0  0  0  0  0  0  0  0  0  0  0  0
   -0.3398   -2.6298    0.0607 C   0  0  0  0  0  0  0  0  0  0  0  0
    0.0568   -2.1348    1.1516 O   0  0  0  0  0  0  0  0  0  0  0  0
   -0.4102   -1.7698   -1.1773 C   0  0  2  0  0  0  0  0  0  0  0  0
    0.8963   -1.8476   -1.9782 C   0  0  0  0  0  0  0  0  0  0  0  0
    1.9995   -1.1173   -1.2725 C   0  0  0  0  0  0  0  0  0  0  0  0
    3.3174   -1.5891   -1.3336 C   0  0  0  0  0  0  0  0  0  0  0  0
    4.3455   -0.8884   -0.7006 C   0  0  0  0  0  0  0  0  0  0  0  0
    4.0787    0.3032   -0.0105 C   0  0  0  0  0  0  0  0  0  0  0  0
    5.1652    1.0023    0.6236 N   0  0  0  0  0  0  0  0  0  0  0  0
    4.9899    2.5064    1.4711 S   0  0  0  0  0  6  0  0  0  0  0  0
    4.3397    3.6706    0.4473 O   0  0  0  0  0  0  0  0  0  0  0  0
    4.0913    2.3129    2.6598 O   0  0  0  0  0  0  0  0  0  0  0  0
    6.3381    2.9689    1.9469 O   0  0  0  0  0  0  0  0  0  0  0  0
    2.7557    0.7820    0.0360 C   0  0  0  0  0  0  0  0  0  0  0  0
    1.7144    0.0732   -0.5848 C   0  0  0  0  0  0  0  0  0  0  0  0
    0.3122    0.6341   -0.5575 C   0  0  0  0  0  0  0  0  0  0  0  0
   -0.7329   -0.3732   -0.8231 N   0  0  0  0  0  0  0  0  0  0  0  0
   -2.1085    0.0192   -0.6482 C   0  0  0  0  0  0  0  0  0  0  0  0
   -3.0265   -0.8409   -0.7405 O   0  0  0  0  0  0  0  0  0  0  0  0
   -2.4133    1.3620   -0.3695 O   0  0  0  0  0  0  0  0  0  0  0  0
   -3.7210    1.9121   -0.1530 C   0  0  0  0  0  0  0  0  0  0  0  0
   -4.3871    1.2609    1.0742 C   0  0  0  0  0  0  0  0  0  0  0  0
   -3.5414    3.4134    0.1185 C   0  0  0  0  0  0  0  0  0  0  0  0
   -4.5990    1.7348   -1.4066 C   0  0  0  0  0  0  0  0  0  0  0  0
    0.4389   -4.9138    1.5393 H   0  0  0  0  0  0  0  0  0  0  0  0
   -1.2867   -4.5223    1.9407 H   0  0  0  0  0  0  0  0  0  0  0  0
   -0.9001   -5.9245    0.8691 H   0  0  0  0  0  0  0  0  0  0  0  0
   -0.9746   -4.4283   -0.9300 H   0  0  0  0  0  0  0  0  0  0  0  0
   -1.2080   -2.1734   -1.8398 H   0  0  0  0  0  0  0  0  0  0  0  0
    0.7436   -1.3752   -2.9727 H   0  0  0  0  0  0  0  0  0  0  0  0
    1.1683   -2.9132   -2.1480 H   0  0  0  0  0  0  0  0  0  0  0  0
    3.5500   -2.5000   -1.8713 H   0  0  0  0  0  0  0  0  0  0  0  0
    5.3565   -1.2725   -0.7546 H   0  0  0  0  0  0  0  0  0  0  0  0
    6.1277    0.5997    0.5705 H   0  0  0  0  0  0  0  0  0  0  0  0
    4.8626    3.5927   -0.3903 H   0  0  0  0  0  0  0  0  0  0  0  0
    2.5209    1.7033    0.5498 H   0  0  0  0  0  0  0  0  0  0  0  0
    0.1298    1.0830    0.4440 H   0  0  0  0  0  0  0  0  0  0  0  0
    0.2403    1.4410   -1.3179 H   0  0  0  0  0  0  0  0  0  0  0  0
   -4.6193    0.1923    0.8901 H   0  0  0  0  0  0  0  0  0  0  0  0
   -3.7128    1.3251    1.9550 H   0  0  0  0  0  0  0  0  0  0  0  0
   -5.3413    1.7754    1.3197 H   0  0  0  0  0  0  0  0  0  0  0  0
   -3.0498    3.9055   -0.7483 H   0  0  0  0  0  0  0  0  0  0  0  0
   -4.5213    3.9072    0.2968 H   0  0  0  0  0  0  0  0  0  0  0  0
   -2.8990    3.5690    1.0121 H   0  0  0  0  0  0  0  0  0  0  0  0
   -4.8321    0.6664   -1.5906 H   0  0  0  0  0  0  0  0  0  0  0  0
   -4.0761    2.1374   -2.3004 H   0  0  0  0  0  0  0  0  0  0  0  0
   -5.5636    2.2740   -1.2872 H   0  0  0  0  0  0  0  0  0  0  0  0
  1  2  1  0
  2  3  1  0
  3  4  2  0
  3  5  1  0
  5  6  1  0
  6  7  1  0
  7  8  2  0
  8  9  1  0
  9 10  2  0
 10 11  1  0
 11 12  1  0
 12 13  1  0
 12 14  2  0
 12 15  2  0
 10 16  1  0
 16 17  2  0
 17 18  1  0
 18 19  1  0
 19 20  1  0
 20 21  2  0
 20 22  1  0
 22 23  1  0
 23 24  1  0
 23 25  1  0
 23 26  1  0
 19  5  1  0
 17  7  1  0
  1 27  1  0
  1 28  1  0
  1 29  1  0
  2 30  1  0
  5 31  1  6
  6 32  1  0
  6 33  1  0
  8 34  1  0
  9 35  1  0
 11 36  1  0
 13 37  1  0
 16 38  1  0
 18 39  1  0
 18 40  1  0
 24 41  1  0
 24 42  1  0
 24 43  1  0
 25 44  1  0
 25 45  1  0
 25 46  1  0
 26 47  1  0
 26 48  1  0
 26 49  1  0
M  END
$$$$
