
     RDKit          3D

 20 20  0  0  0  0  0  0  0  0999 V2000
    0.2214    2.9689   -0.7678 O   0  0  0  0  0  0  0  0  0  0  0  0
   -0.2019    1.8237   -0.0951 C   0  0  0  0  0  0  0  0  0  0  0  0
   -1.0828    1.9277    0.9880 C   0  0  0  0  0  0  0  0  0  0  0  0
   -1.5081    0.7827    1.6632 C   0  0  0  0  0  0  0  0  0  0  0  0
   -1.0584   -0.4868    1.2652 C   0  0  0  0  0  0  0  0  0  0  0  0
   -0.1727   -0.5866    0.1754 C   0  0  0  0  0  0  0  0  0  0  0  0
    0.2595    0.5667   -0.5093 C   0  0  0  0  0  0  0  0  0  0  0  0
    1.1414    0.5106   -1.5990 O   0  0  0  0  0  0  0  0  0  0  0  0
    1.8070   -0.9274   -2.2441 S   0  0  0  0  0  6  0  0  0  0  0  0
    2.6866   -1.7251   -1.0533 O   0  0  0  0  0  0  0  0  0  0  0  0
    0.7018   -1.8151   -2.7442 O   0  0  0  0  0  0  0  0  0  0  0  0
    2.7187   -0.5753   -3.3853 O   0  0  0  0  0  0  0  0  0  0  0  0
   -1.4996   -1.6655    1.9646 N   0  0  0  0  0  4  0  0  0  0  0  0
   -2.3658   -1.5636    3.0292 O   0  0  0  0  0  1  0  0  0  0  0  0
   -1.1047   -2.7982    1.6181 O   0  0  0  0  0  0  0  0  0  0  0  0
   -0.0934    3.8923   -0.4935 H   0  0  0  0  0  0  0  0  0  0  0  0
   -1.4394    2.8986    1.3081 H   0  0  0  0  0  0  0  0  0  0  0  0
   -2.1892    0.8915    2.4971 H   0  0  0  0  0  0  0  0  0  0  0  0
    0.1732   -1.5622   -0.1313 H   0  0  0  0  0  0  0  0  0  0  0  0
    3.0063   -2.5569   -1.4859 H   0  0  0  0  0  0  0  0  0  0  0  0
  1  2  1  0
  2  3  2  0
  3  4  1  0
  4  5  2  0
  5  6  1  0
  6  7  2  0
  7  8  1  0
  8  9  1  0
  9 10  1  0
  9 11  2  0
  9 12  2  0
  5 13  1  0
 13 14  1  0
 13 15  2  0
  7  2  1  0
  1 16  1  0
  3 17  1  0
  4 18  1  0
  6 19  1  0
 10 20  1  0
M  CHG  2  13   1  14  -1
M  END
$$$$
