
     RDKit          3D

 85 87  0  0  0  0  0  0  0  0999 V2000
    7.5725   -1.0411   -1.3967 C   0  0  0  0  0  0  0  0  0  0  0  0
    6.4652   -2.0962   -1.5384 C   0  0  2  0  0  0  0  0  0  0  0  0
    5.0863   -1.4895   -1.4454 C   0  0  0  0  0  0  0  0  0  0  0  0
    4.6399   -0.8580   -0.3538 C   0  0  0  0  0  0  0  0  0  0  0  0
    3.2734   -0.2968   -0.3112 C   0  0  0  0  0  0  0  0  0  0  0  0
    2.7521    0.3311    0.7624 C   0  0  0  0  0  0  0  0  0  0  0  0
    3.5498    0.5160    2.0301 C   0  0  0  0  0  0  0  0  0  0  0  0
    1.3328    0.8687    0.7007 C   0  0  1  0  0  0  0  0  0  0  0  0
    1.1770    1.6694   -0.4768 O   0  0  0  0  0  0  0  0  0  0  0  0
    1.5500    3.0119   -0.6365 C   0  0  0  0  0  0  0  0  0  0  0  0
    1.6930    3.4476   -1.8094 O   0  0  0  0  0  0  0  0  0  0  0  0
    1.6750    3.9926    0.5036 C   0  0  0  0  0  0  0  0  0  0  0  0
    0.3621    4.7960    0.6965 C   0  0  2  0  0  0  0  0  0  0  0  0
    0.6594    6.0670    1.2175 O   0  0  0  0  0  0  0  0  0  0  0  0
   -0.6052    4.0802    1.6681 C   0  0  0  0  0  0  0  0  0  0  0  0
   -2.1014    4.2513    1.3204 C   0  0  0  0  0  0  0  0  0  0  0  0
   -2.7259    3.1699    0.3686 C   0  0  1  0  0  0  0  0  0  0  0  0
   -4.0775    3.7289   -0.1473 C   0  0  0  0  0  0  0  0  0  0  0  0
   -1.8784    2.9311   -0.7316 O   0  0  0  0  0  0  0  0  0  0  0  0
   -3.0060    1.8120    1.1096 C   0  0  1  0  0  0  0  0  0  0  0  0
   -3.8972    1.0018    0.3364 O   0  0  0  0  0  0  0  0  0  0  0  0
   -4.5564   -0.1278    0.8385 C   0  0  0  0  0  0  0  0  0  0  0  0
   -4.4055   -0.4594    2.0471 O   0  0  0  0  0  0  0  0  0  0  0  0
   -5.4030   -0.9082   -0.0275 N   0  0  0  0  0  0  0  0  0  0  0  0
   -5.6957   -0.4233   -1.3825 C   0  0  0  0  0  0  0  0  0  0  0  0
   -5.9484   -1.5990   -2.3286 C   0  0  0  0  0  0  0  0  0  0  0  0
   -6.9720   -2.4978   -1.7643 N   0  0  0  0  0  0  0  0  0  0  0  0
   -7.2699   -3.5780   -2.7171 C   0  0  0  0  0  0  0  0  0  0  0  0
   -6.4926   -3.0688   -0.4921 C   0  0  0  0  0  0  0  0  0  0  0  0
   -6.2644   -1.9574    0.5346 C   0  0  0  0  0  0  0  0  0  0  0  0
   -1.7478    1.0231    1.4067 C   0  0  0  0  0  0  0  0  0  0  0  0
   -1.1045    0.3142    0.4601 C   0  0  0  0  0  0  0  0  0  0  0  0
    0.2803   -0.2692    0.6629 C   0  0  2  0  0  0  0  0  0  0  0  0
    0.3386   -1.1706    1.9067 C   0  0  0  0  0  0  0  0  0  0  0  0
    6.6176   -3.2622   -0.5843 C   0  0  0  0  0  0  0  0  0  0  0  0
    6.9512   -3.0872    0.7725 C   0  0  0  0  0  0  0  0  0  0  0  0
    7.0382   -4.2020    1.6085 C   0  0  0  0  0  0  0  0  0  0  0  0
    6.7873   -5.4758    1.0987 C   0  0  0  0  0  0  0  0  0  0  0  0
    6.4478   -5.6163   -0.2473 C   0  0  0  0  0  0  0  0  0  0  0  0
    6.3671   -4.5198   -1.0471 N   0  0  0  0  0  0  0  0  0  0  0  0
    7.5039   -0.4953   -0.4332 H   0  0  0  0  0  0  0  0  0  0  0  0
    8.5699   -1.5256   -1.4644 H   0  0  0  0  0  0  0  0  0  0  0  0
    7.4907   -0.2991   -2.2196 H   0  0  0  0  0  0  0  0  0  0  0  0
    6.5660   -2.5042   -2.5692 H   0  0  0  0  0  0  0  0  0  0  0  0
    4.4354   -1.5887   -2.3070 H   0  0  0  0  0  0  0  0  0  0  0  0
    5.2896   -0.7612    0.5038 H   0  0  0  0  0  0  0  0  0  0  0  0
    2.6614   -0.4011   -1.2004 H   0  0  0  0  0  0  0  0  0  0  0  0
    2.9631    1.0382    2.8139 H   0  0  0  0  0  0  0  0  0  0  0  0
    4.4559    1.1229    1.8211 H   0  0  0  0  0  0  0  0  0  0  0  0
    3.8480   -0.4735    2.4365 H   0  0  0  0  0  0  0  0  0  0  0  0
    1.1284    1.4677    1.6052 H   0  0  0  0  0  0  0  0  0  0  0  0
    2.4956    4.6967    0.2434 H   0  0  0  0  0  0  0  0  0  0  0  0
    1.9951    3.5015    1.4449 H   0  0  0  0  0  0  0  0  0  0  0  0
   -0.1302    4.9277   -0.2940 H   0  0  0  0  0  0  0  0  0  0  0  0
    1.0071    6.6156    0.4661 H   0  0  0  0  0  0  0  0  0  0  0  0
   -0.4357    4.4767    2.6939 H   0  0  0  0  0  0  0  0  0  0  0  0
   -0.3557    3.0231    1.7360 H   0  0  0  0  0  0  0  0  0  0  0  0
   -2.2364    5.2675    0.8877 H   0  0  0  0  0  0  0  0  0  0  0  0
   -2.6797    4.2572    2.2705 H   0  0  0  0  0  0  0  0  0  0  0  0
   -4.5159    3.0596   -0.9180 H   0  0  0  0  0  0  0  0  0  0  0  0
   -3.9423    4.7249   -0.6212 H   0  0  0  0  0  0  0  0  0  0  0  0
   -4.8015    3.8359    0.6892 H   0  0  0  0  0  0  0  0  0  0  0  0
   -1.8412    3.7576   -1.2800 H   0  0  0  0  0  0  0  0  0  0  0  0
   -3.5018    2.0471    2.0780 H   0  0  0  0  0  0  0  0  0  0  0  0
   -6.5942    0.2303   -1.3501 H   0  0  0  0  0  0  0  0  0  0  0  0
   -4.8457    0.1681   -1.7864 H   0  0  0  0  0  0  0  0  0  0  0  0
   -4.9924   -2.1446   -2.5042 H   0  0  0  0  0  0  0  0  0  0  0  0
   -6.2962   -1.1894   -3.3030 H   0  0  0  0  0  0  0  0  0  0  0  0
   -8.0618   -4.2414   -2.3075 H   0  0  0  0  0  0  0  0  0  0  0  0
   -6.3641   -4.1869   -2.9360 H   0  0  0  0  0  0  0  0  0  0  0  0
   -7.6586   -3.1529   -3.6675 H   0  0  0  0  0  0  0  0  0  0  0  0
   -7.2514   -3.7700   -0.0792 H   0  0  0  0  0  0  0  0  0  0  0  0
   -5.5440   -3.6346   -0.6420 H   0  0  0  0  0  0  0  0  0  0  0  0
   -7.2406   -1.5114    0.8244 H   0  0  0  0  0  0  0  0  0  0  0  0
   -5.8030   -2.4103    1.4386 H   0  0  0  0  0  0  0  0  0  0  0  0
   -1.3345    1.0890    2.4083 H   0  0  0  0  0  0  0  0  0  0  0  0
   -1.5433    0.2282   -0.5304 H   0  0  0  0  0  0  0  0  0  0  0  0
    0.4891   -0.9117   -0.2207 H   0  0  0  0  0  0  0  0  0  0  0  0
    0.2790   -0.5717    2.8397 H   0  0  0  0  0  0  0  0  0  0  0  0
   -0.4989   -1.9005    1.8905 H   0  0  0  0  0  0  0  0  0  0  0  0
    1.2901   -1.7431    1.9189 H   0  0  0  0  0  0  0  0  0  0  0  0
    7.1427   -2.1070    1.1857 H   0  0  0  0  0  0  0  0  0  0  0  0
    7.2974   -4.0779    2.6520 H   0  0  0  0  0  0  0  0  0  0  0  0
    6.8515   -6.3448    1.7406 H   0  0  0  0  0  0  0  0  0  0  0  0
    6.2448   -6.5968   -0.6565 H   0  0  0  0  0  0  0  0  0  0  0  0
  1  2  1  0
  2  3  1  0
  3  4  2  0
  4  5  1  0
  5  6  2  0
  6  7  1  0
  6  8  1  0
  8  9  1  0
  9 10  1  0
 10 11  2  0
 10 12  1  0
 12 13  1  0
 13 14  1  0
 13 15  1  0
 15 16  1  0
 16 17  1  0
 17 18  1  0
 17 19  1  6
 17 20  1  0
 20 21  1  0
 21 22  1  0
 22 23  2  0
 22 24  1  0
 24 25  1  0
 25 26  1  0
 26 27  1  0
 27 28  1  0
 27 29  1  0
 29 30  1  0
 20 31  1  0
 31 32  2  0
 32 33  1  0
 33 34  1  0
  2 35  1  0
 35 36  2  0
 36 37  1  0
 37 38  2  0
 38 39  1  0
 39 40  2  0
 33  8  1  0
 40 35  1  0
 30 24  1  0
  1 41  1  0
  1 42  1  0
  1 43  1  0
  2 44  1  6
  3 45  1  0
  4 46  1  0
  5 47  1  0
  7 48  1  0
  7 49  1  0
  7 50  1  0
  8 51  1  1
 12 52  1  0
 12 53  1  0
 13 54  1  6
 14 55  1  0
 15 56  1  0
 15 57  1  0
 16 58  1  0
 16 59  1  0
 18 60  1  0
 18 61  1  0
 18 62  1  0
 19 63  1  0
 20 64  1  1
 25 65  1  0
 25 66  1  0
 26 67  1  0
 26 68  1  0
 28 69  1  0
 28 70  1  0
 28 71  1  0
 29 72  1  0
 29 73  1  0
 30 74  1  0
 30 75  1  0
 31 76  1  0
 32 77  1  0
 33 78  1  6
 34 79  1  0
 34 80  1  0
 34 81  1  0
 36 82  1  0
 37 83  1  0
 38 84  1  0
 39 85  1  0
M  END
$$$$
