
     RDKit          3D

 53 56  0  0  0  0  0  0  0  0999 V2000
    1.5532    0.3810   -0.4539 C   0  0  2  0  0  0  0  0  0  0  0  0
    2.5266    0.4849   -1.6185 C   0  0  0  0  0  0  0  0  0  0  0  0
    3.9165    0.3706   -0.9623 C   0  0  0  0  0  0  0  0  0  0  0  0
    3.7034   -0.0902    0.5114 C   0  0  2  0  0  0  0  0  0  0  0  0
    3.9781    1.0959    1.4714 C   0  0  0  0  0  0  0  0  0  0  0  0
    4.6228   -1.1151    0.8151 O   0  0  0  0  0  0  0  0  0  0  0  0
    2.2184   -0.6130    0.5082 C   0  0  2  0  0  0  0  0  0  0  0  0
    2.2306   -2.0829   -0.0451 C   0  0  0  0  0  0  0  0  0  0  0  0
    1.4602   -0.5482    1.8663 C   0  0  0  0  0  0  0  0  0  0  0  0
   -0.0775   -0.7491    1.7380 C   0  0  2  0  0  0  0  0  0  0  0  0
   -0.3936   -2.1153    1.6677 O   0  0  0  0  0  0  0  0  0  0  0  0
   -0.7391    0.1486    0.6181 C   0  0  1  0  0  0  0  0  0  0  0  0
   -0.5950    1.4543    1.0821 F   0  0  0  0  0  0  0  0  0  0  0  0
    0.0545    0.0888   -0.7378 C   0  0  1  0  0  0  0  0  0  0  0  0
   -0.5053    1.1360   -1.7252 C   0  0  0  0  0  0  0  0  0  0  0  0
   -1.9986    0.9438   -1.9778 C   0  0  0  0  0  0  0  0  0  0  0  0
   -2.7762    0.8928   -0.6831 C   0  0  0  0  0  0  0  0  0  0  0  0
   -3.9728    1.5068   -0.6252 C   0  0  0  0  0  0  0  0  0  0  0  0
   -4.8798    1.3403    0.5183 C   0  0  0  0  0  0  0  0  0  0  0  0
   -5.9672    1.9751    0.5495 O   0  0  0  0  0  0  0  0  0  0  0  0
   -4.5567    0.3666    1.6051 C   0  0  0  0  0  0  0  0  0  0  0  0
   -3.0401    0.2369    1.7643 C   0  0  0  0  0  0  0  0  0  0  0  0
   -2.3025   -0.0685    0.4164 C   0  0  2  0  0  0  0  0  0  0  0  0
   -2.6872   -1.5007   -0.0467 C   0  0  0  0  0  0  0  0  0  0  0  0
    1.5705    1.3898    0.0181 H   0  0  0  0  0  0  0  0  0  0  0  0
    2.4176    1.4547   -2.1514 H   0  0  0  0  0  0  0  0  0  0  0  0
    2.3624   -0.3484   -2.3366 H   0  0  0  0  0  0  0  0  0  0  0  0
    4.4465    1.3469   -1.0234 H   0  0  0  0  0  0  0  0  0  0  0  0
    4.5257   -0.3707   -1.5252 H   0  0  0  0  0  0  0  0  0  0  0  0
    5.0258    1.4442    1.3456 H   0  0  0  0  0  0  0  0  0  0  0  0
    3.8675    0.7800    2.5300 H   0  0  0  0  0  0  0  0  0  0  0  0
    3.3094    1.9588    1.2787 H   0  0  0  0  0  0  0  0  0  0  0  0
    4.4031   -1.4499    1.7239 H   0  0  0  0  0  0  0  0  0  0  0  0
    3.0326   -2.2356   -0.7977 H   0  0  0  0  0  0  0  0  0  0  0  0
    1.3156   -2.3857   -0.5725 H   0  0  0  0  0  0  0  0  0  0  0  0
    2.4153   -2.8074    0.7763 H   0  0  0  0  0  0  0  0  0  0  0  0
    1.6039    0.4493    2.3313 H   0  0  0  0  0  0  0  0  0  0  0  0
    1.8815   -1.2920    2.5771 H   0  0  0  0  0  0  0  0  0  0  0  0
   -0.4936   -0.4017    2.7084 H   0  0  0  0  0  0  0  0  0  0  0  0
   -0.3362   -2.4032    0.7281 H   0  0  0  0  0  0  0  0  0  0  0  0
   -0.0572   -0.8988   -1.2191 H   0  0  0  0  0  0  0  0  0  0  0  0
    0.0215    1.0500   -2.7001 H   0  0  0  0  0  0  0  0  0  0  0  0
   -0.3324    2.1657   -1.3407 H   0  0  0  0  0  0  0  0  0  0  0  0
   -2.3482    1.7754   -2.6288 H   0  0  0  0  0  0  0  0  0  0  0  0
   -2.1614   -0.0038   -2.5349 H   0  0  0  0  0  0  0  0  0  0  0  0
   -4.3054    2.1300   -1.4472 H   0  0  0  0  0  0  0  0  0  0  0  0
   -4.9955    0.7161    2.5649 H   0  0  0  0  0  0  0  0  0  0  0  0
   -5.0069   -0.6188    1.3621 H   0  0  0  0  0  0  0  0  0  0  0  0
   -2.8353   -0.5613    2.5099 H   0  0  0  0  0  0  0  0  0  0  0  0
   -2.6727    1.1904    2.2022 H   0  0  0  0  0  0  0  0  0  0  0  0
   -2.0310   -1.8688   -0.8589 H   0  0  0  0  0  0  0  0  0  0  0  0
   -3.7240   -1.5181   -0.4465 H   0  0  0  0  0  0  0  0  0  0  0  0
   -2.6716   -2.2264    0.7915 H   0  0  0  0  0  0  0  0  0  0  0  0
  1  2  1  0
  2  3  1  0
  3  4  1  0
  4  5  1  0
  4  6  1  1
  4  7  1  0
  7  8  1  6
  7  9  1  0
  9 10  1  0
 10 11  1  0
 10 12  1  0
 12 13  1  1
 12 14  1  0
 14 15  1  0
 15 16  1  0
 16 17  1  0
 17 18  2  0
 18 19  1  0
 19 20  2  0
 19 21  1  0
 21 22  1  0
 22 23  1  0
 23 24  1  6
  7  1  1  0
 23 12  1  0
 14  1  1  0
 23 17  1  0
  1 25  1  1
  2 26  1  0
  2 27  1  0
  3 28  1  0
  3 29  1  0
  5 30  1  0
  5 31  1  0
  5 32  1  0
  6 33  1  0
  8 34  1  0
  8 35  1  0
  8 36  1  0
  9 37  1  0
  9 38  1  0
 10 39  1  1
 11 40  1  0
 14 41  1  6
 15 42  1  0
 15 43  1  0
 16 44  1  0
 16 45  1  0
 18 46  1  0
 21 47  1  0
 21 48  1  0
 22 49  1  0
 22 50  1  0
 24 51  1  0
 24 52  1  0
 24 53  1  0
M  END
$$$$
