
     RDKit          3D

160163  0  0  0  0  0  0  0  0999 V2000
    7.0226   -3.5709    2.9155 O   0  0  0  0  0  0  0  0  0  0  0  0
    7.0782   -2.5803    3.9103 C   0  0  0  0  0  0  0  0  0  0  0  0
    8.2354   -1.5832    3.6469 C   0  0  0  0  0  0  0  0  0  0  0  0
    9.5873   -2.3255    3.7743 C   0  0  0  0  0  0  0  0  0  0  0  0
    8.1697   -0.4525    4.6996 C   0  0  0  0  0  0  0  0  0  0  0  0
    9.1771    0.4970    4.4726 O   0  0  0  0  0  0  0  0  0  0  0  0
    8.0687   -0.9778    2.2651 C   0  0  0  0  0  0  0  0  0  0  0  0
    9.0404   -0.9286    1.4598 O   0  0  0  0  0  0  0  0  0  0  0  0
    6.8273   -0.4394    1.9025 O   0  0  0  0  0  0  0  0  0  0  0  0
    6.5377    0.0788    0.6029 C   0  0  2  0  0  0  0  0  0  0  0  0
    5.2879    0.9818    0.7082 C   0  0  0  0  0  0  0  0  0  0  0  0
    4.5083    1.0340   -0.6074 C   0  0  0  0  0  0  0  0  0  0  0  0
    3.9566   -0.3631   -0.9913 C   0  0  1  0  0  0  0  0  0  0  0  0
    3.6602   -0.4704   -2.5084 C   0  0  0  0  0  0  0  0  0  0  0  0
    2.6891    0.6022   -3.0721 C   0  0  1  0  0  0  0  0  0  0  0  0
    2.5722    0.4369   -4.5979 C   0  0  0  0  0  0  0  0  0  0  0  0
    1.2890    0.6449   -2.3808 C   0  0  2  0  0  0  0  0  0  0  0  0
    0.4917   -0.6653   -2.5273 C   0  0  0  0  0  0  0  0  0  0  0  0
   -0.8379   -0.5791   -1.8105 C   0  0  0  0  0  0  0  0  0  0  0  0
   -1.7545    0.0115   -2.3639 O   0  0  0  0  0  0  0  0  0  0  0  0
   -1.0958   -1.1703   -0.4357 C   0  0  2  0  0  0  0  0  0  0  0  0
    0.1399   -1.6599    0.3308 C   0  0  0  0  0  0  0  0  0  0  0  0
   -2.1932   -2.2193   -0.4445 C   0  0  0  0  0  0  0  0  0  0  0  0
   -2.2281   -3.3718   -1.1653 C   0  0  0  0  0  0  0  0  0  0  0  0
   -1.1854   -3.7035   -2.2096 C   0  0  0  0  0  0  0  0  0  0  0  0
   -3.4018   -4.3275   -0.9654 C   0  0  1  0  0  0  0  0  0  0  0  0
   -4.0534   -4.5050   -2.1975 O   0  0  0  0  0  0  0  0  0  0  0  0
   -2.9872   -5.7062   -0.3795 C   0  0  1  0  0  0  0  0  0  0  0  0
   -2.3206   -6.4607   -1.3823 O   0  0  0  0  0  0  0  0  0  0  0  0
   -2.6882   -7.8221   -1.3184 C   0  0  0  0  0  0  0  0  0  0  0  0
   -2.1051   -5.5891    0.8602 C   0  0  0  0  0  0  0  0  0  0  0  0
   -1.0529   -6.2135    0.8951 O   0  0  0  0  0  0  0  0  0  0  0  0
   -2.5344   -4.7771    2.0761 C   0  0  2  0  0  0  0  0  0  0  0  0
   -1.3592   -4.5442    3.0428 C   0  0  0  0  0  0  0  0  0  0  0  0
   -3.7341   -5.4471    2.7921 C   0  0  0  0  0  0  0  0  0  0  0  0
   -4.4005   -4.5597    3.8742 C   0  0  2  0  0  0  0  0  0  0  0  0
   -5.6207   -5.2648    4.4787 C   0  0  0  0  0  0  0  0  0  0  0  0
   -4.7828   -3.1907    3.3542 C   0  0  0  0  0  0  0  0  0  0  0  0
   -5.5963   -3.0203    2.3005 C   0  0  0  0  0  0  0  0  0  0  0  0
   -5.9212   -1.7047    1.7105 C   0  0  0  0  0  0  0  0  0  0  0  0
   -5.8090   -0.5414    2.3644 C   0  0  0  0  0  0  0  0  0  0  0  0
   -6.2244    0.7359    1.7560 C   0  0  0  0  0  0  0  0  0  0  0  0
   -5.7013    1.2555    0.6239 C   0  0  0  0  0  0  0  0  0  0  0  0
   -4.5761    0.5671   -0.1082 C   0  0  0  0  0  0  0  0  0  0  0  0
   -6.2121    2.5898    0.1067 C   0  0  1  0  0  0  0  0  0  0  0  0
   -7.6314    2.5448    0.0682 O   0  0  0  0  0  0  0  0  0  0  0  0
   -8.1275    3.2004   -1.0792 C   0  0  0  0  0  0  0  0  0  0  0  0
   -5.7588    3.7445    1.0300 C   0  0  0  0  0  0  0  0  0  0  0  0
   -4.2774    4.1211    0.8346 C   0  0  2  0  0  0  0  0  0  0  0  0
   -3.8282    5.1056    1.9394 C   0  0  0  0  0  0  0  0  0  0  0  0
   -2.8023    6.1165    1.4157 C   0  0  0  0  0  0  0  0  0  0  0  0
   -1.8888    5.4972    0.3465 C   0  0  1  0  0  0  0  0  0  0  0  0
   -0.8931    4.5095    0.9857 C   0  0  0  0  0  0  0  0  0  0  0  0
   -2.7514    4.8673   -0.8140 C   0  0  1  0  0  0  0  0  0  0  0  0
   -2.2315    3.6159   -1.2051 O   0  0  0  0  0  0  0  0  0  0  0  0
   -4.1230    4.7104   -0.4438 O   0  0  0  0  0  0  0  0  0  0  0  0
   -2.7282    5.8068   -2.0096 C   0  0  0  0  0  0  0  0  0  0  0  0
   -3.6734    6.6296   -2.1560 O   0  0  0  0  0  0  0  0  0  0  0  0
   -1.6403    5.8115   -3.0093 C   0  0  0  0  0  0  0  0  0  0  0  0
   -1.8511    6.3214   -4.1428 O   0  0  0  0  0  0  0  0  0  0  0  0
   -0.3373    5.2891   -2.7095 N   0  0  0  0  0  0  0  0  0  0  0  0
    0.6533    6.2351   -2.1723 C   0  0  0  0  0  0  0  0  0  0  0  0
    1.5934    6.7056   -3.2862 C   0  0  0  0  0  0  0  0  0  0  0  0
    2.2077    5.5131   -4.0274 C   0  0  0  0  0  0  0  0  0  0  0  0
    1.1167    4.5872   -4.5841 C   0  0  0  0  0  0  0  0  0  0  0  0
    0.1356    4.1284   -3.4883 C   0  0  1  0  0  0  0  0  0  0  0  0
    0.7549    3.0659   -2.6171 C   0  0  0  0  0  0  0  0  0  0  0  0
    1.5383    3.3728   -1.6783 O   0  0  0  0  0  0  0  0  0  0  0  0
    0.5206    1.7214   -2.9254 O   0  0  0  0  0  0  0  0  0  0  0  0
    4.8942   -1.5135   -0.5255 C   0  0  0  0  0  0  0  0  0  0  0  0
    6.3713   -1.0840   -0.4184 C   0  0  1  0  0  0  0  0  0  0  0  0
    6.8441   -0.6514   -1.6856 O   0  0  0  0  0  0  0  0  0  0  0  0
    7.4832   -1.7051   -2.3725 C   0  0  0  0  0  0  0  0  0  0  0  0
    7.5642   -4.3375    3.2380 H   0  0  0  0  0  0  0  0  0  0  0  0
    7.1830   -3.0415    4.9210 H   0  0  0  0  0  0  0  0  0  0  0  0
    6.1061   -2.0408    3.9102 H   0  0  0  0  0  0  0  0  0  0  0  0
   10.4400   -1.6260    3.6385 H   0  0  0  0  0  0  0  0  0  0  0  0
    9.6757   -3.1224    3.0052 H   0  0  0  0  0  0  0  0  0  0  0  0
    9.6830   -2.7951    4.7771 H   0  0  0  0  0  0  0  0  0  0  0  0
    8.2887   -0.8810    5.7210 H   0  0  0  0  0  0  0  0  0  0  0  0
    7.1763    0.0503    4.6540 H   0  0  0  0  0  0  0  0  0  0  0  0
    9.0743    1.1837    5.1817 H   0  0  0  0  0  0  0  0  0  0  0  0
    7.3882    0.7214    0.2792 H   0  0  0  0  0  0  0  0  0  0  0  0
    4.6106    0.6036    1.5062 H   0  0  0  0  0  0  0  0  0  0  0  0
    5.5973    2.0099    0.9965 H   0  0  0  0  0  0  0  0  0  0  0  0
    5.1787    1.4261   -1.4037 H   0  0  0  0  0  0  0  0  0  0  0  0
    3.6651    1.7493   -0.4962 H   0  0  0  0  0  0  0  0  0  0  0  0
    3.0033   -0.5135   -0.4472 H   0  0  0  0  0  0  0  0  0  0  0  0
    4.6235   -0.3901   -3.0578 H   0  0  0  0  0  0  0  0  0  0  0  0
    3.2611   -1.4823   -2.7335 H   0  0  0  0  0  0  0  0  0  0  0  0
    3.1641    1.5939   -2.9125 H   0  0  0  0  0  0  0  0  0  0  0  0
    3.5633    0.5998   -5.0727 H   0  0  0  0  0  0  0  0  0  0  0  0
    1.8682    1.1804   -5.0259 H   0  0  0  0  0  0  0  0  0  0  0  0
    2.2258   -0.5834   -4.8648 H   0  0  0  0  0  0  0  0  0  0  0  0
    1.4238    0.8341   -1.2949 H   0  0  0  0  0  0  0  0  0  0  0  0
    1.0790   -1.5185   -2.1418 H   0  0  0  0  0  0  0  0  0  0  0  0
    0.2931   -0.8722   -3.5999 H   0  0  0  0  0  0  0  0  0  0  0  0
   -1.4793   -0.3229    0.1742 H   0  0  0  0  0  0  0  0  0  0  0  0
    0.8724   -0.8346    0.4328 H   0  0  0  0  0  0  0  0  0  0  0  0
    0.6279   -2.5259   -0.1538 H   0  0  0  0  0  0  0  0  0  0  0  0
   -0.1566   -1.9653    1.3566 H   0  0  0  0  0  0  0  0  0  0  0  0
   -3.0175   -2.0110    0.2310 H   0  0  0  0  0  0  0  0  0  0  0  0
   -0.1911   -3.8460   -1.7461 H   0  0  0  0  0  0  0  0  0  0  0  0
   -1.1453   -2.9110   -2.9808 H   0  0  0  0  0  0  0  0  0  0  0  0
   -1.4373   -4.6349   -2.7525 H   0  0  0  0  0  0  0  0  0  0  0  0
   -4.1353   -3.8752   -0.2565 H   0  0  0  0  0  0  0  0  0  0  0  0
   -4.9344   -4.9208   -2.0039 H   0  0  0  0  0  0  0  0  0  0  0  0
   -3.9415   -6.1948   -0.0704 H   0  0  0  0  0  0  0  0  0  0  0  0
   -3.7513   -7.9545   -1.6167 H   0  0  0  0  0  0  0  0  0  0  0  0
   -2.0618   -8.3924   -2.0344 H   0  0  0  0  0  0  0  0  0  0  0  0
   -2.5149   -8.2450   -0.3037 H   0  0  0  0  0  0  0  0  0  0  0  0
   -2.8427   -3.7809    1.7155 H   0  0  0  0  0  0  0  0  0  0  0  0
   -1.0688   -5.4916    3.5456 H   0  0  0  0  0  0  0  0  0  0  0  0
   -0.4802   -4.1489    2.4908 H   0  0  0  0  0  0  0  0  0  0  0  0
   -1.6289   -3.7926    3.8131 H   0  0  0  0  0  0  0  0  0  0  0  0
   -4.5087   -5.7197    2.0465 H   0  0  0  0  0  0  0  0  0  0  0  0
   -3.3932   -6.3980    3.2583 H   0  0  0  0  0  0  0  0  0  0  0  0
   -3.6748   -4.4177    4.7037 H   0  0  0  0  0  0  0  0  0  0  0  0
   -5.3146   -6.2290    4.9378 H   0  0  0  0  0  0  0  0  0  0  0  0
   -6.0738   -4.6319    5.2718 H   0  0  0  0  0  0  0  0  0  0  0  0
   -6.3881   -5.4697    3.7019 H   0  0  0  0  0  0  0  0  0  0  0  0
   -4.3186   -2.3381    3.8313 H   0  0  0  0  0  0  0  0  0  0  0  0
   -5.9970   -3.8896    1.7955 H   0  0  0  0  0  0  0  0  0  0  0  0
   -6.3367   -1.7097    0.7106 H   0  0  0  0  0  0  0  0  0  0  0  0
   -5.5502   -0.5238    3.4139 H   0  0  0  0  0  0  0  0  0  0  0  0
   -6.9562    1.3095    2.3114 H   0  0  0  0  0  0  0  0  0  0  0  0
   -4.1461    1.2131   -0.9007 H   0  0  0  0  0  0  0  0  0  0  0  0
   -4.9385   -0.3627   -0.5906 H   0  0  0  0  0  0  0  0  0  0  0  0
   -3.7607    0.3295    0.6051 H   0  0  0  0  0  0  0  0  0  0  0  0
   -5.7753    2.7602   -0.9077 H   0  0  0  0  0  0  0  0  0  0  0  0
   -7.8557    2.6382   -1.9995 H   0  0  0  0  0  0  0  0  0  0  0  0
   -9.2344    3.2341   -1.0175 H   0  0  0  0  0  0  0  0  0  0  0  0
   -7.7592    4.2483   -1.1427 H   0  0  0  0  0  0  0  0  0  0  0  0
   -5.9423    3.4762    2.0935 H   0  0  0  0  0  0  0  0  0  0  0  0
   -6.3772    4.6441    0.8178 H   0  0  0  0  0  0  0  0  0  0  0  0
   -3.6728    3.1891    0.9105 H   0  0  0  0  0  0  0  0  0  0  0  0
   -4.6914    5.6761    2.3489 H   0  0  0  0  0  0  0  0  0  0  0  0
   -3.3867    4.5286    2.7812 H   0  0  0  0  0  0  0  0  0  0  0  0
   -2.2043    6.5225    2.2608 H   0  0  0  0  0  0  0  0  0  0  0  0
   -3.3460    6.9735    0.9591 H   0  0  0  0  0  0  0  0  0  0  0  0
   -1.2686    6.3304   -0.0471 H   0  0  0  0  0  0  0  0  0  0  0  0
   -1.4101    3.6239    1.4084 H   0  0  0  0  0  0  0  0  0  0  0  0
   -0.1599    4.1647    0.2288 H   0  0  0  0  0  0  0  0  0  0  0  0
   -0.3247    5.0091    1.7989 H   0  0  0  0  0  0  0  0  0  0  0  0
   -2.8585    3.2272   -1.8703 H   0  0  0  0  0  0  0  0  0  0  0  0
    0.1526    7.1240   -1.7302 H   0  0  0  0  0  0  0  0  0  0  0  0
    1.2390    5.7620   -1.3591 H   0  0  0  0  0  0  0  0  0  0  0  0
    2.4041    7.3264   -2.8479 H   0  0  0  0  0  0  0  0  0  0  0  0
    1.0264    7.3367   -4.0054 H   0  0  0  0  0  0  0  0  0  0  0  0
    2.8755    4.9469   -3.3428 H   0  0  0  0  0  0  0  0  0  0  0  0
    2.8300    5.8884   -4.8681 H   0  0  0  0  0  0  0  0  0  0  0  0
    1.5893    3.7072   -5.0722 H   0  0  0  0  0  0  0  0  0  0  0  0
    0.5493    5.1346   -5.3685 H   0  0  0  0  0  0  0  0  0  0  0  0
   -0.7318    3.6492   -3.9971 H   0  0  0  0  0  0  0  0  0  0  0  0
    4.5661   -1.8577    0.4811 H   0  0  0  0  0  0  0  0  0  0  0  0
    4.8043   -2.3992   -1.1904 H   0  0  0  0  0  0  0  0  0  0  0  0
    6.9486   -1.9596   -0.0327 H   0  0  0  0  0  0  0  0  0  0  0  0
    8.4204   -2.0024   -1.8525 H   0  0  0  0  0  0  0  0  0  0  0  0
    6.8100   -2.5819   -2.4928 H   0  0  0  0  0  0  0  0  0  0  0  0
    7.7577   -1.3505   -3.3870 H   0  0  0  0  0  0  0  0  0  0  0  0
  1  2  1  0
  2  3  1  0
  3  4  1  0
  3  5  1  0
  5  6  1  0
  3  7  1  0
  7  8  2  0
  7  9  1  0
  9 10  1  0
 10 11  1  0
 11 12  1  0
 12 13  1  0
 13 14  1  0
 14 15  1  0
 15 16  1  0
 15 17  1  0
 17 18  1  0
 18 19  1  0
 19 20  2  0
 19 21  1  0
 21 22  1  0
 21 23  1  0
 23 24  2  0
 24 25  1  0
 24 26  1  0
 26 27  1  0
 26 28  1  0
 28 29  1  0
 29 30  1  0
 28 31  1  0
 31 32  2  0
 31 33  1  0
 33 34  1  0
 33 35  1  0
 35 36  1  0
 36 37  1  0
 36 38  1  0
 38 39  2  0
 39 40  1  0
 40 41  2  0
 41 42  1  0
 42 43  2  0
 43 44  1  0
 43 45  1  0
 45 46  1  0
 46 47  1  0
 45 48  1  0
 48 49  1  0
 49 50  1  0
 50 51  1  0
 51 52  1  0
 52 53  1  0
 52 54  1  0
 54 55  1  6
 54 56  1  0
 54 57  1  0
 57 58  2  0
 57 59  1  0
 59 60  2  0
 59 61  1  0
 61 62  1  0
 62 63  1  0
 63 64  1  0
 64 65  1  0
 65 66  1  0
 66 67  1  0
 67 68  2  0
 67 69  1  0
 13 70  1  0
 70 71  1  0
 71 72  1  0
 72 73  1  0
 71 10  1  0
 69 17  1  0
 56 49  1  0
 66 61  1  0
  1 74  1  0
  2 75  1  0
  2 76  1  0
  4 77  1  0
  4 78  1  0
  4 79  1  0
  5 80  1  0
  5 81  1  0
  6 82  1  0
 10 83  1  6
 11 84  1  0
 11 85  1  0
 12 86  1  0
 12 87  1  0
 13 88  1  1
 14 89  1  0
 14 90  1  0
 15 91  1  6
 16 92  1  0
 16 93  1  0
 16 94  1  0
 17 95  1  1
 18 96  1  0
 18 97  1  0
 21 98  1  1
 22 99  1  0
 22100  1  0
 22101  1  0
 23102  1  0
 25103  1  0
 25104  1  0
 25105  1  0
 26106  1  1
 27107  1  0
 28108  1  1
 30109  1  0
 30110  1  0
 30111  1  0
 33112  1  6
 34113  1  0
 34114  1  0
 34115  1  0
 35116  1  0
 35117  1  0
 36118  1  1
 37119  1  0
 37120  1  0
 37121  1  0
 38122  1  0
 39123  1  0
 40124  1  0
 41125  1  0
 42126  1  0
 44127  1  0
 44128  1  0
 44129  1  0
 45130  1  6
 47131  1  0
 47132  1  0
 47133  1  0
 48134  1  0
 48135  1  0
 49136  1  6
 50137  1  0
 50138  1  0
 51139  1  0
 51140  1  0
 52141  1  6
 53142  1  0
 53143  1  0
 53144  1  0
 55145  1  0
 62146  1  0
 62147  1  0
 63148  1  0
 63149  1  0
 64150  1  0
 64151  1  0
 65152  1  0
 65153  1  0
 66154  1  6
 70155  1  0
 70156  1  0
 71157  1  1
 73158  1  0
 73159  1  0
 73160  1  0
M  END
$$$$
