
     RDKit          3D

 62 64  0  0  0  0  0  0  0  0999 V2000
   -3.6778    1.9903    1.0141 C   0  0  2  0  0  0  0  0  0  0  0  0
   -3.5905    2.5228   -0.4272 C   0  0  0  0  0  0  0  0  0  0  0  0
   -2.1139    2.5884   -0.7969 C   0  0  0  0  0  0  0  0  0  0  0  0
   -1.3444    2.4972    0.5062 C   0  0  0  0  0  0  0  0  0  0  0  0
   -2.2505    1.7552    1.4854 C   0  0  2  0  0  0  0  0  0  0  0  0
   -2.0409    0.3068    1.4543 N   0  0  0  0  0  0  0  0  0  0  0  0
   -3.2829   -0.4245    1.2047 C   0  0  1  0  0  0  0  0  0  0  0  0
   -4.3861    0.6346    1.1311 C   0  0  0  0  0  0  0  0  0  0  0  0
   -3.2127   -1.2176   -0.0701 C   0  0  0  0  0  0  0  0  0  0  0  0
   -2.6926   -0.6505   -1.2279 O   0  0  0  0  0  0  0  0  0  0  0  0
   -3.6615   -2.3947   -0.0992 O   0  0  0  0  0  0  0  0  0  0  0  0
   -0.8452   -0.2929    2.0058 C   0  0  0  0  0  0  0  0  0  0  0  0
    0.0327    0.4570    2.5171 O   0  0  0  0  0  0  0  0  0  0  0  0
   -0.6228   -1.7960    2.0051 C   0  0  2  0  0  0  0  0  0  0  0  0
    0.5599   -2.2306    2.8867 C   0  0  0  0  0  0  0  0  0  0  0  0
   -0.5801   -2.3704    0.6379 N   0  0  0  0  0  0  0  0  0  0  0  0
    0.5853   -2.1225   -0.2461 C   0  0  1  0  0  0  0  0  0  0  0  0
    0.8329   -0.6218   -0.4984 C   0  0  0  0  0  0  0  0  0  0  0  0
    1.6868   -0.3582   -1.7464 C   0  0  0  0  0  0  0  0  0  0  0  0
    1.8210    1.1242   -1.9682 C   0  0  0  0  0  0  0  0  0  0  0  0
    0.8775    1.8111   -2.7505 C   0  0  0  0  0  0  0  0  0  0  0  0
    0.9585    3.1994   -2.8938 C   0  0  0  0  0  0  0  0  0  0  0  0
    1.9759    3.9114   -2.2529 C   0  0  0  0  0  0  0  0  0  0  0  0
    2.9125    3.2364   -1.4652 C   0  0  0  0  0  0  0  0  0  0  0  0
    2.8339    1.8481   -1.3175 C   0  0  0  0  0  0  0  0  0  0  0  0
    1.8190   -2.8752    0.1920 C   0  0  0  0  0  0  0  0  0  0  0  0
    1.8070   -4.1366    0.1800 O   0  0  0  0  0  0  0  0  0  0  0  0
    2.9636   -2.1825    0.6083 O   0  0  0  0  0  0  0  0  0  0  0  0
    4.1859   -2.8240    0.9624 C   0  0  0  0  0  0  0  0  0  0  0  0
    4.9297   -3.2831   -0.2859 C   0  0  0  0  0  0  0  0  0  0  0  0
   -4.1811    2.7447    1.6606 H   0  0  0  0  0  0  0  0  0  0  0  0
   -4.0252    3.5457   -0.4677 H   0  0  0  0  0  0  0  0  0  0  0  0
   -4.1385    1.8912   -1.1596 H   0  0  0  0  0  0  0  0  0  0  0  0
   -1.8458    1.7311   -1.4483 H   0  0  0  0  0  0  0  0  0  0  0  0
   -1.8735    3.5299   -1.3371 H   0  0  0  0  0  0  0  0  0  0  0  0
   -0.3609    2.0036    0.3649 H   0  0  0  0  0  0  0  0  0  0  0  0
   -1.1636    3.5250    0.8912 H   0  0  0  0  0  0  0  0  0  0  0  0
   -2.1095    2.1333    2.5230 H   0  0  0  0  0  0  0  0  0  0  0  0
   -3.4970   -1.1050    2.0585 H   0  0  0  0  0  0  0  0  0  0  0  0
   -5.1163    0.4543    0.3111 H   0  0  0  0  0  0  0  0  0  0  0  0
   -4.9594    0.6191    2.0846 H   0  0  0  0  0  0  0  0  0  0  0  0
   -2.6450   -1.1788   -2.0906 H   0  0  0  0  0  0  0  0  0  0  0  0
   -1.5160   -2.2297    2.5045 H   0  0  0  0  0  0  0  0  0  0  0  0
    0.7234   -3.3257    2.8029 H   0  0  0  0  0  0  0  0  0  0  0  0
    1.4886   -1.6920    2.6127 H   0  0  0  0  0  0  0  0  0  0  0  0
    0.3382   -1.9981    3.9504 H   0  0  0  0  0  0  0  0  0  0  0  0
   -0.7471   -3.4028    0.6999 H   0  0  0  0  0  0  0  0  0  0  0  0
    0.3083   -2.5539   -1.2340 H   0  0  0  0  0  0  0  0  0  0  0  0
   -0.1492   -0.1296   -0.6533 H   0  0  0  0  0  0  0  0  0  0  0  0
    1.3300   -0.1616    0.3812 H   0  0  0  0  0  0  0  0  0  0  0  0
    1.2131   -0.8289   -2.6358 H   0  0  0  0  0  0  0  0  0  0  0  0
    2.6941   -0.8123   -1.6284 H   0  0  0  0  0  0  0  0  0  0  0  0
    0.0737    1.2734   -3.2380 H   0  0  0  0  0  0  0  0  0  0  0  0
    0.2274    3.7240   -3.4953 H   0  0  0  0  0  0  0  0  0  0  0  0
    2.0352    4.9865   -2.3622 H   0  0  0  0  0  0  0  0  0  0  0  0
    3.6952    3.7899   -0.9628 H   0  0  0  0  0  0  0  0  0  0  0  0
    3.5543    1.3385   -0.6896 H   0  0  0  0  0  0  0  0  0  0  0  0
    3.9907   -3.6859    1.6369 H   0  0  0  0  0  0  0  0  0  0  0  0
    4.8213   -2.0956    1.5086 H   0  0  0  0  0  0  0  0  0  0  0  0
    5.1135   -2.4170   -0.9565 H   0  0  0  0  0  0  0  0  0  0  0  0
    5.9047   -3.7289    0.0029 H   0  0  0  0  0  0  0  0  0  0  0  0
    4.3361   -4.0459   -0.8315 H   0  0  0  0  0  0  0  0  0  0  0  0
  1  2  1  0
  2  3  1  0
  3  4  1  0
  4  5  1  0
  5  6  1  0
  6  7  1  0
  7  8  1  0
  7  9  1  0
  9 10  1  0
  9 11  2  0
  6 12  1  0
 12 13  2  0
 12 14  1  0
 14 15  1  0
 14 16  1  0
 16 17  1  0
 17 18  1  0
 18 19  1  0
 19 20  1  0
 20 21  2  0
 21 22  1  0
 22 23  2  0
 23 24  1  0
 24 25  2  0
 17 26  1  0
 26 27  2  0
 26 28  1  0
 28 29  1  0
 29 30  1  0
  5  1  1  0
 25 20  1  0
  8  1  1  0
  1 31  1  1
  2 32  1  0
  2 33  1  0
  3 34  1  0
  3 35  1  0
  4 36  1  0
  4 37  1  0
  5 38  1  1
  7 39  1  1
  8 40  1  0
  8 41  1  0
 10 42  1  0
 14 43  1  1
 15 44  1  0
 15 45  1  0
 15 46  1  0
 16 47  1  0
 17 48  1  6
 18 49  1  0
 18 50  1  0
 19 51  1  0
 19 52  1  0
 21 53  1  0
 22 54  1  0
 23 55  1  0
 24 56  1  0
 25 57  1  0
 29 58  1  0
 29 59  1  0
 30 60  1  0
 30 61  1  0
 30 62  1  0
M  END
$$$$
