
     RDKit          3D

 37 39  0  0  0  0  0  0  0  0999 V2000
    6.3855    0.4744    0.0488 O   0  0  0  0  0  0  0  0  0  0  0  0
    4.9958    0.4025   -0.0167 C   0  0  0  0  0  0  0  0  0  0  0  0
    4.2287    0.8891    1.0453 C   0  0  0  0  0  0  0  0  0  0  0  0
    2.8281    0.8237    0.9991 C   0  0  0  0  0  0  0  0  0  0  0  0
    2.0755    1.3063    2.0700 O   0  0  0  0  0  0  0  0  0  0  0  0
    2.1877    0.2584   -0.1222 C   0  0  0  0  0  0  0  0  0  0  0  0
    2.9674   -0.2154   -1.1914 C   0  0  0  0  0  0  0  0  0  0  0  0
    4.3617   -0.1485   -1.1362 C   0  0  0  0  0  0  0  0  0  0  0  0
    0.7116    0.2047   -0.1973 C   0  0  0  0  0  0  0  0  0  0  0  0
   -0.0939    1.2060    0.2083 N   0  0  0  0  0  0  0  0  0  0  0  0
   -1.3594    0.8579    0.0007 N   0  0  0  0  0  0  0  0  0  0  0  0
   -2.4435    1.7147    0.4822 C   0  0  0  0  0  0  0  0  0  0  0  0
   -2.8260    1.3364    1.8855 C   0  0  0  0  0  0  0  0  0  0  0  0
   -3.7727    2.0077    2.5449 C   0  0  0  0  0  0  0  0  0  0  0  0
   -1.3867   -0.3991   -0.5315 C   0  0  0  0  0  0  0  0  0  0  0  0
   -0.0801   -0.8290   -0.6561 C   0  0  0  0  0  0  0  0  0  0  0  0
    0.2557   -2.1063   -1.0950 C   0  0  0  0  0  0  0  0  0  0  0  0
   -0.7822   -2.9651   -1.4623 C   0  0  0  0  0  0  0  0  0  0  0  0
   -2.1208   -2.5423   -1.3860 C   0  0  0  0  0  0  0  0  0  0  0  0
   -2.4665   -1.2464   -0.9188 C   0  0  0  0  0  0  0  0  0  0  0  0
   -3.9234   -0.8290   -0.9355 C   0  0  0  0  0  0  0  0  0  0  0  0
   -4.7446   -1.8558   -1.3702 F   0  0  0  0  0  0  0  0  0  0  0  0
   -4.0941    0.2312   -1.8059 F   0  0  0  0  0  0  0  0  0  0  0  0
   -4.3406   -0.4843    0.3338 F   0  0  0  0  0  0  0  0  0  0  0  0
    6.9696    0.1313   -0.7049 H   0  0  0  0  0  0  0  0  0  0  0  0
    4.7226    1.3174    1.9086 H   0  0  0  0  0  0  0  0  0  0  0  0
    2.5144    1.7129    2.8879 H   0  0  0  0  0  0  0  0  0  0  0  0
    2.4984   -0.6136   -2.0821 H   0  0  0  0  0  0  0  0  0  0  0  0
    4.9480   -0.5172   -1.9683 H   0  0  0  0  0  0  0  0  0  0  0  0
   -2.0902    2.7693    0.4900 H   0  0  0  0  0  0  0  0  0  0  0  0
   -3.3139    1.6958   -0.1920 H   0  0  0  0  0  0  0  0  0  0  0  0
   -2.3330    0.5001    2.3739 H   0  0  0  0  0  0  0  0  0  0  0  0
   -4.2870    2.8452    2.0831 H   0  0  0  0  0  0  0  0  0  0  0  0
   -4.0392    1.7185    3.5563 H   0  0  0  0  0  0  0  0  0  0  0  0
    1.2822   -2.4437   -1.1347 H   0  0  0  0  0  0  0  0  0  0  0  0
   -0.5530   -3.9639   -1.8110 H   0  0  0  0  0  0  0  0  0  0  0  0
   -2.8819   -3.2436   -1.7011 H   0  0  0  0  0  0  0  0  0  0  0  0
  1  2  1  0
  2  3  2  0
  3  4  1  0
  4  5  1  0
  4  6  2  0
  6  7  1  0
  7  8  2  0
  6  9  1  0
  9 10  2  0
 10 11  1  0
 11 12  1  0
 12 13  1  0
 13 14  2  3
 11 15  1  0
 15 16  2  0
 16 17  1  0
 17 18  2  0
 18 19  1  0
 19 20  2  0
 20 21  1  0
 21 22  1  0
 21 23  1  0
 21 24  1  0
  8  2  1  0
 16  9  1  0
 20 15  1  0
  1 25  1  0
  3 26  1  0
  5 27  1  0
  7 28  1  0
  8 29  1  0
 12 30  1  0
 12 31  1  0
 13 32  1  0
 14 33  1  0
 14 34  1  0
 17 35  1  0
 18 36  1  0
 19 37  1  0
M  END
$$$$
