
     RDKit          3D

 40 41  0  0  0  0  0  0  0  0999 V2000
    3.1068   -2.5022   -0.1521 C   0  0  0  0  0  0  0  0  0  0  0  0
    2.3584   -1.7471    0.9553 C   0  0  2  0  0  0  0  0  0  0  0  0
    0.9381   -2.1161    0.9666 N   0  0  0  0  0  0  0  0  0  0  0  0
   -0.0205   -1.6358    0.0139 C   0  0  0  0  0  0  0  0  0  0  0  0
    0.3348   -1.1167   -1.1102 N   0  0  0  0  0  0  0  0  0  0  0  0
   -0.7568   -0.5700   -1.8235 C   0  0  0  0  0  0  0  0  0  0  0  0
   -0.6046   -0.0793   -2.9739 O   0  0  0  0  0  0  0  0  0  0  0  0
   -2.0741   -0.5675   -1.1004 C   0  0  1  0  0  0  0  0  0  0  0  0
   -3.1207   -1.2868   -1.9743 C   0  0  0  0  0  0  0  0  0  0  0  0
   -1.7726   -1.6147    0.3860 S   0  0  0  0  0  0  0  0  0  0  0  0
   -2.4923    0.9041   -0.6967 C   0  0  0  0  0  0  0  0  0  0  0  0
   -1.4107    1.5726    0.1852 C   0  0  0  0  0  0  0  0  0  0  0  0
   -3.8237    0.9350    0.0972 C   0  0  0  0  0  0  0  0  0  0  0  0
   -2.6159    1.7022   -1.8536 O   0  0  0  0  0  0  0  0  0  0  0  0
    2.5124   -0.2332    0.9232 C   0  0  0  0  0  0  0  0  0  0  0  0
    2.8714    0.4748   -0.2438 C   0  0  0  0  0  0  0  0  0  0  0  0
    2.9222    1.8720   -0.2371 C   0  0  0  0  0  0  0  0  0  0  0  0
    2.6097    2.5808    0.9246 C   0  0  0  0  0  0  0  0  0  0  0  0
    2.6540    3.9358    0.9253 F   0  0  0  0  0  0  0  0  0  0  0  0
    2.2448    1.8931    2.0835 C   0  0  0  0  0  0  0  0  0  0  0  0
    2.1929    0.4964    2.0829 C   0  0  0  0  0  0  0  0  0  0  0  0
    4.1770   -2.2044   -0.1619 H   0  0  0  0  0  0  0  0  0  0  0  0
    2.6652   -2.3118   -1.1512 H   0  0  0  0  0  0  0  0  0  0  0  0
    3.0525   -3.5945    0.0421 H   0  0  0  0  0  0  0  0  0  0  0  0
    2.8094   -2.0969    1.9116 H   0  0  0  0  0  0  0  0  0  0  0  0
    0.5733   -2.6227    1.8044 H   0  0  0  0  0  0  0  0  0  0  0  0
   -4.0712   -1.4339   -1.4222 H   0  0  0  0  0  0  0  0  0  0  0  0
   -2.7511   -2.2951   -2.2624 H   0  0  0  0  0  0  0  0  0  0  0  0
   -3.3255   -0.7262   -2.9097 H   0  0  0  0  0  0  0  0  0  0  0  0
   -0.4328    1.6136   -0.3391 H   0  0  0  0  0  0  0  0  0  0  0  0
   -1.6998    2.6200    0.4190 H   0  0  0  0  0  0  0  0  0  0  0  0
   -1.2758    1.0353    1.1473 H   0  0  0  0  0  0  0  0  0  0  0  0
   -3.7531    0.3299    1.0253 H   0  0  0  0  0  0  0  0  0  0  0  0
   -4.6701    0.5558   -0.5106 H   0  0  0  0  0  0  0  0  0  0  0  0
   -4.0739    1.9790    0.3848 H   0  0  0  0  0  0  0  0  0  0  0  0
   -3.4601    1.4657   -2.3176 H   0  0  0  0  0  0  0  0  0  0  0  0
    3.1006   -0.0393   -1.1662 H   0  0  0  0  0  0  0  0  0  0  0  0
    3.1970    2.4054   -1.1381 H   0  0  0  0  0  0  0  0  0  0  0  0
    1.9945    2.4417    2.9824 H   0  0  0  0  0  0  0  0  0  0  0  0
    1.8902   -0.0191    2.9861 H   0  0  0  0  0  0  0  0  0  0  0  0
  1  2  1  0
  2  3  1  0
  3  4  1  0
  4  5  2  0
  5  6  1  0
  6  7  2  0
  6  8  1  0
  8  9  1  6
  8 10  1  0
  8 11  1  0
 11 12  1  0
 11 13  1  0
 11 14  1  0
  2 15  1  0
 15 16  2  0
 16 17  1  0
 17 18  2  0
 18 19  1  0
 18 20  1  0
 20 21  2  0
 10  4  1  0
 21 15  1  0
  1 22  1  0
  1 23  1  0
  1 24  1  0
  2 25  1  1
  3 26  1  0
  9 27  1  0
  9 28  1  0
  9 29  1  0
 12 30  1  0
 12 31  1  0
 12 32  1  0
 13 33  1  0
 13 34  1  0
 13 35  1  0
 14 36  1  0
 16 37  1  0
 17 38  1  0
 20 39  1  0
 21 40  1  0
M  END
$$$$
