
     RDKit          3D

 53 56  0  0  0  0  0  0  0  0999 V2000
   -0.9956   -0.2506   -1.2039 C   0  0  2  0  0  0  0  0  0  0  0  0
   -1.5576    0.0983   -2.5749 C   0  0  0  0  0  0  0  0  0  0  0  0
   -3.0264   -0.3495   -2.5163 C   0  0  0  0  0  0  0  0  0  0  0  0
   -3.3535   -0.7170   -1.0357 C   0  0  1  0  0  0  0  0  0  0  0  0
   -4.5859   -0.1649   -0.6349 O   0  0  0  0  0  0  0  0  0  0  0  0
   -3.4398   -2.1939   -0.9125 C   0  0  0  0  0  0  0  0  0  0  0  0
   -3.5139   -3.3938   -0.8173 C   0  0  0  0  0  0  0  0  0  0  0  0
   -2.1646   -0.1188   -0.2037 C   0  0  2  0  0  0  0  0  0  0  0  0
   -2.4860    1.3573    0.2887 C   0  0  0  0  0  0  0  0  0  0  0  0
   -2.8019    2.4359   -0.7500 C   0  0  0  0  0  0  0  0  0  0  0  0
   -1.7401   -0.9248    1.0676 C   0  0  0  0  0  0  0  0  0  0  0  0
   -0.4213   -0.3654    1.5946 C   0  0  0  0  0  0  0  0  0  0  0  0
   -0.4150    0.2569    2.7901 C   0  0  0  0  0  0  0  0  0  0  0  0
    0.7579   -0.3386    0.6001 C   0  0  2  0  0  0  0  0  0  0  0  0
    2.1235    0.1806    1.1546 C   0  0  1  0  0  0  0  0  0  0  0  0
    2.6771   -0.7816    2.2358 C   0  0  0  0  0  0  0  0  0  0  0  0
    4.0693   -0.3371    2.6764 C   0  0  0  0  0  0  0  0  0  0  0  0
    5.0386   -0.4168    1.4979 C   0  0  0  0  0  0  0  0  0  0  0  0
    4.4731    0.2001    0.2446 C   0  0  0  0  0  0  0  0  0  0  0  0
    3.1471    0.3659    0.0313 C   0  0  0  0  0  0  0  0  0  0  0  0
    2.6954    0.9999   -1.2616 C   0  0  0  0  0  0  0  0  0  0  0  0
    1.4171    0.3381   -1.7662 C   0  0  0  0  0  0  0  0  0  0  0  0
    0.3124    0.4122   -0.6999 C   0  0  1  0  0  0  0  0  0  0  0  0
   -0.7576   -1.3396   -1.2982 H   0  0  0  0  0  0  0  0  0  0  0  0
   -1.0147   -0.4544   -3.3734 H   0  0  0  0  0  0  0  0  0  0  0  0
   -1.4723    1.1776   -2.8007 H   0  0  0  0  0  0  0  0  0  0  0  0
   -3.1822   -1.2128   -3.2024 H   0  0  0  0  0  0  0  0  0  0  0  0
   -3.6816    0.4642   -2.8918 H   0  0  0  0  0  0  0  0  0  0  0  0
   -5.2809   -0.4739   -1.2746 H   0  0  0  0  0  0  0  0  0  0  0  0
   -3.5781   -4.4466   -0.7333 H   0  0  0  0  0  0  0  0  0  0  0  0
   -3.3504    1.3091    0.9866 H   0  0  0  0  0  0  0  0  0  0  0  0
   -1.6577    1.7673    0.8993 H   0  0  0  0  0  0  0  0  0  0  0  0
   -1.8952    2.7151   -1.3204 H   0  0  0  0  0  0  0  0  0  0  0  0
   -3.6275    2.1416   -1.4220 H   0  0  0  0  0  0  0  0  0  0  0  0
   -3.1329    3.3534   -0.2187 H   0  0  0  0  0  0  0  0  0  0  0  0
   -2.5492   -0.8894    1.8306 H   0  0  0  0  0  0  0  0  0  0  0  0
   -1.5660   -1.9966    0.8359 H   0  0  0  0  0  0  0  0  0  0  0  0
   -1.3045    0.2688    3.4123 H   0  0  0  0  0  0  0  0  0  0  0  0
    0.4405    0.7983    3.1690 H   0  0  0  0  0  0  0  0  0  0  0  0
    0.9324   -1.4008    0.3117 H   0  0  0  0  0  0  0  0  0  0  0  0
    1.9737    1.1872    1.6005 H   0  0  0  0  0  0  0  0  0  0  0  0
    2.7350   -1.8178    1.8336 H   0  0  0  0  0  0  0  0  0  0  0  0
    2.0224   -0.8128    3.1283 H   0  0  0  0  0  0  0  0  0  0  0  0
    4.0279    0.7053    3.0628 H   0  0  0  0  0  0  0  0  0  0  0  0
    4.4304   -0.9955    3.4958 H   0  0  0  0  0  0  0  0  0  0  0  0
    5.9841    0.1009    1.7661 H   0  0  0  0  0  0  0  0  0  0  0  0
    5.2778   -1.4816    1.2879 H   0  0  0  0  0  0  0  0  0  0  0  0
    5.1780    0.4197   -0.5526 H   0  0  0  0  0  0  0  0  0  0  0  0
    3.4717    0.9042   -2.0526 H   0  0  0  0  0  0  0  0  0  0  0  0
    2.5163    2.0834   -1.0896 H   0  0  0  0  0  0  0  0  0  0  0  0
    1.0923    0.8699   -2.6862 H   0  0  0  0  0  0  0  0  0  0  0  0
    1.6252   -0.7216   -2.0348 H   0  0  0  0  0  0  0  0  0  0  0  0
    0.1334    1.4848   -0.4736 H   0  0  0  0  0  0  0  0  0  0  0  0
  1  2  1  0
  2  3  1  0
  3  4  1  0
  4  5  1  0
  4  6  1  6
  6  7  3  0
  4  8  1  0
  8  9  1  1
  9 10  1  0
  8 11  1  0
 11 12  1  0
 12 13  2  3
 12 14  1  0
 14 15  1  0
 15 16  1  0
 16 17  1  0
 17 18  1  0
 18 19  1  0
 19 20  2  0
 20 21  1  0
 21 22  1  0
 22 23  1  0
  8  1  1  0
 23 14  1  0
 23  1  1  0
 20 15  1  0
  1 24  1  6
  2 25  1  0
  2 26  1  0
  3 27  1  0
  3 28  1  0
  5 29  1  0
  7 30  1  0
  9 31  1  0
  9 32  1  0
 10 33  1  0
 10 34  1  0
 10 35  1  0
 11 36  1  0
 11 37  1  0
 13 38  1  0
 13 39  1  0
 14 40  1  6
 15 41  1  1
 16 42  1  0
 16 43  1  0
 17 44  1  0
 17 45  1  0
 18 46  1  0
 18 47  1  0
 19 48  1  0
 21 49  1  0
 21 50  1  0
 22 51  1  0
 22 52  1  0
 23 53  1  1
M  END
$$$$
