
     RDKit          3D

118120  0  0  0  0  0  0  0  0999 V2000
   -6.5199   -1.5134    3.4790 C   0  0  0  0  0  0  0  0  0  0  0  0
   -5.0094   -1.3347    3.2996 C   0  0  0  0  0  0  0  0  0  0  0  0
   -4.5390   -1.5467    1.8306 C   0  0  1  0  0  0  0  0  0  0  0  0
   -3.4991   -0.6175    1.4642 O   0  0  0  0  0  0  0  0  0  0  0  0
   -2.4153   -0.2109    2.2655 C   0  0  0  0  0  0  0  0  0  0  0  0
   -2.1296   -0.8230    3.3299 O   0  0  0  0  0  0  0  0  0  0  0  0
   -1.6116    1.0091    1.8846 C   0  0  2  0  0  0  0  0  0  0  0  0
   -2.5802    2.1352    1.4955 C   0  0  0  0  0  0  0  0  0  0  0  0
   -0.5583    0.7241    0.7651 C   0  0  1  0  0  0  0  0  0  0  0  0
    0.1947    1.9113    0.5268 O   0  0  0  0  0  0  0  0  0  0  0  0
   -0.1510    2.5491   -0.6945 C   0  0  1  0  0  0  0  0  0  0  0  0
    0.1669    4.0524   -0.5763 C   0  0  0  0  0  0  0  0  0  0  0  0
    0.3550    4.7434   -1.9679 C   0  0  1  0  0  0  0  0  0  0  0  0
   -0.2969    6.1568   -1.9547 C   0  0  0  0  0  0  0  0  0  0  0  0
    1.7400    4.7647   -2.3279 O   0  0  0  0  0  0  0  0  0  0  0  0
    2.4873    5.8001   -1.7170 C   0  0  0  0  0  0  0  0  0  0  0  0
   -0.3691    3.8907   -3.0461 C   0  0  1  0  0  0  0  0  0  0  0  0
   -0.1629    4.4353   -4.3276 O   0  0  0  0  0  0  0  0  0  0  0  0
    0.1693    2.4297   -3.0242 C   0  0  2  0  0  0  0  0  0  0  0  0
   -0.8442    1.4356   -3.5991 C   0  0  0  0  0  0  0  0  0  0  0  0
    0.6126    1.9922   -1.7457 O   0  0  0  0  0  0  0  0  0  0  0  0
    0.4330   -0.4394    1.1343 C   0  0  2  0  0  0  0  0  0  0  0  0
    1.3184   -0.0729    2.3448 C   0  0  0  0  0  0  0  0  0  0  0  0
    1.2759   -0.9240   -0.1167 C   0  0  1  0  0  0  0  0  0  0  0  0
    2.6652   -0.9895    0.2070 O   0  0  0  0  0  0  0  0  0  0  0  0
    3.5028   -0.3442   -0.7486 C   0  0  2  0  0  0  0  0  0  0  0  0
    4.7493   -1.0087   -0.8306 O   0  0  0  0  0  0  0  0  0  0  0  0
    5.4756   -1.0288    0.3940 C   0  0  2  0  0  0  0  0  0  0  0  0
    5.3588   -2.4055    1.0518 C   0  0  0  0  0  0  0  0  0  0  0  0
    5.1339    0.1027    1.3948 C   0  0  0  0  0  0  0  0  0  0  0  0
    4.8150    1.4208    0.6560 C   0  0  1  0  0  0  0  0  0  0  0  0
    3.7024    1.1561   -0.4094 C   0  0  1  0  0  0  0  0  0  0  0  0
    3.9672    1.8850   -1.5836 O   0  0  0  0  0  0  0  0  0  0  0  0
    4.3922    2.5063    1.5933 N   0  0  0  0  0  0  0  0  0  0  0  0
    5.3309    2.6797    2.7204 C   0  0  0  0  0  0  0  0  0  0  0  0
    4.2782    3.7968    0.8843 C   0  0  0  0  0  0  0  0  0  0  0  0
    0.8220   -2.3153   -0.7065 C   0  0  2  0  0  0  0  0  0  0  0  0
    1.0259   -3.4334    0.3378 C   0  0  0  0  0  0  0  0  0  0  0  0
    1.6557   -2.6190   -1.8009 O   0  0  0  0  0  0  0  0  0  0  0  0
   -0.6687   -2.2293   -1.1873 C   0  0  0  0  0  0  0  0  0  0  0  0
   -1.3599   -3.4529   -1.8608 C   0  0  1  0  0  0  0  0  0  0  0  0
   -0.4944   -4.2122   -2.8731 C   0  0  0  0  0  0  0  0  0  0  0  0
   -2.0184   -4.4044   -0.8691 C   0  0  0  0  0  0  0  0  0  0  0  0
   -1.3282   -5.1929   -0.2417 O   0  0  0  0  0  0  0  0  0  0  0  0
   -3.5335   -4.4696   -0.7020 C   0  0  2  0  0  0  0  0  0  0  0  0
   -4.1713   -4.9103   -2.0338 C   0  0  0  0  0  0  0  0  0  0  0  0
   -4.1222   -3.1248   -0.1410 C   0  0  1  0  0  0  0  0  0  0  0  0
   -5.4026   -2.8727   -0.6759 O   0  0  0  0  0  0  0  0  0  0  0  0
   -4.1687   -3.0272    1.4330 C   0  0  1  0  0  0  0  0  0  0  0  0
   -2.8151   -3.4473    2.0596 C   0  0  0  0  0  0  0  0  0  0  0  0
   -5.1738   -3.9109    1.8816 O   0  0  0  0  0  0  0  0  0  0  0  0
   -7.0703   -0.7654    2.8695 H   0  0  0  0  0  0  0  0  0  0  0  0
   -6.8488   -2.5293    3.1846 H   0  0  0  0  0  0  0  0  0  0  0  0
   -6.7857   -1.3569    4.5458 H   0  0  0  0  0  0  0  0  0  0  0  0
   -4.4770   -2.0108    3.9984 H   0  0  0  0  0  0  0  0  0  0  0  0
   -4.7775   -0.2935    3.6123 H   0  0  0  0  0  0  0  0  0  0  0  0
   -5.4059   -1.2573    1.1984 H   0  0  0  0  0  0  0  0  0  0  0  0
   -1.0796    1.3727    2.7895 H   0  0  0  0  0  0  0  0  0  0  0  0
   -2.0375    3.0967    1.3936 H   0  0  0  0  0  0  0  0  0  0  0  0
   -3.0980    1.9010    0.5407 H   0  0  0  0  0  0  0  0  0  0  0  0
   -3.3469    2.2736    2.2885 H   0  0  0  0  0  0  0  0  0  0  0  0
   -1.1250    0.3884   -0.1350 H   0  0  0  0  0  0  0  0  0  0  0  0
   -1.2433    2.4547   -0.9032 H   0  0  0  0  0  0  0  0  0  0  0  0
    1.0787    4.1736    0.0430 H   0  0  0  0  0  0  0  0  0  0  0  0
   -0.6612    4.5313   -0.0093 H   0  0  0  0  0  0  0  0  0  0  0  0
   -1.4022    6.0786   -1.8681 H   0  0  0  0  0  0  0  0  0  0  0  0
    0.0556    6.7566   -1.0892 H   0  0  0  0  0  0  0  0  0  0  0  0
   -0.0573    6.7084   -2.8884 H   0  0  0  0  0  0  0  0  0  0  0  0
    3.5636    5.5404   -1.7826 H   0  0  0  0  0  0  0  0  0  0  0  0
    2.3449    6.7533   -2.2683 H   0  0  0  0  0  0  0  0  0  0  0  0
    2.2459    5.9403   -0.6425 H   0  0  0  0  0  0  0  0  0  0  0  0
   -1.4630    3.8682   -2.8133 H   0  0  0  0  0  0  0  0  0  0  0  0
   -0.9275    5.0387   -4.5191 H   0  0  0  0  0  0  0  0  0  0  0  0
    1.0613    2.3941   -3.6881 H   0  0  0  0  0  0  0  0  0  0  0  0
   -0.3912    0.4225   -3.6417 H   0  0  0  0  0  0  0  0  0  0  0  0
   -1.1325    1.7354   -4.6290 H   0  0  0  0  0  0  0  0  0  0  0  0
   -1.7567    1.3899   -2.9686 H   0  0  0  0  0  0  0  0  0  0  0  0
   -0.1735   -1.2889    1.4916 H   0  0  0  0  0  0  0  0  0  0  0  0
    1.9835   -0.9239    2.6035 H   0  0  0  0  0  0  0  0  0  0  0  0
    0.7047    0.1196    3.2468 H   0  0  0  0  0  0  0  0  0  0  0  0
    1.9362    0.8239    2.1353 H   0  0  0  0  0  0  0  0  0  0  0  0
    1.0916   -0.1870   -0.9222 H   0  0  0  0  0  0  0  0  0  0  0  0
    3.0692   -0.4058   -1.7717 H   0  0  0  0  0  0  0  0  0  0  0  0
    6.5458   -0.8981    0.1204 H   0  0  0  0  0  0  0  0  0  0  0  0
    6.0383   -2.4684    1.9284 H   0  0  0  0  0  0  0  0  0  0  0  0
    5.6458   -3.1959    0.3262 H   0  0  0  0  0  0  0  0  0  0  0  0
    4.3205   -2.5952    1.3926 H   0  0  0  0  0  0  0  0  0  0  0  0
    4.2725   -0.1803    2.0356 H   0  0  0  0  0  0  0  0  0  0  0  0
    6.0158    0.2282    2.0586 H   0  0  0  0  0  0  0  0  0  0  0  0
    5.7548    1.7255    0.1383 H   0  0  0  0  0  0  0  0  0  0  0  0
    2.7354    1.5244   -0.0128 H   0  0  0  0  0  0  0  0  0  0  0  0
    4.7925    1.5098   -1.9889 H   0  0  0  0  0  0  0  0  0  0  0  0
    5.0990    3.6006    3.2991 H   0  0  0  0  0  0  0  0  0  0  0  0
    5.2195    1.8451    3.4430 H   0  0  0  0  0  0  0  0  0  0  0  0
    6.3833    2.7380    2.3637 H   0  0  0  0  0  0  0  0  0  0  0  0
    3.9619    4.6014    1.5829 H   0  0  0  0  0  0  0  0  0  0  0  0
    5.2437    4.0850    0.4122 H   0  0  0  0  0  0  0  0  0  0  0  0
    3.4920    3.7519    0.1074 H   0  0  0  0  0  0  0  0  0  0  0  0
    1.0456   -4.4259   -0.1543 H   0  0  0  0  0  0  0  0  0  0  0  0
    2.0016   -3.3243    0.8537 H   0  0  0  0  0  0  0  0  0  0  0  0
    0.2298   -3.4415    1.1061 H   0  0  0  0  0  0  0  0  0  0  0  0
    1.4838   -1.9523   -2.5167 H   0  0  0  0  0  0  0  0  0  0  0  0
   -0.7304   -1.3893   -1.9140 H   0  0  0  0  0  0  0  0  0  0  0  0
   -1.3029   -1.9146   -0.3425 H   0  0  0  0  0  0  0  0  0  0  0  0
   -2.1785   -3.0079   -2.4659 H   0  0  0  0  0  0  0  0  0  0  0  0
   -0.0835   -3.5110   -3.6296 H   0  0  0  0  0  0  0  0  0  0  0  0
    0.3364   -4.7515   -2.3752 H   0  0  0  0  0  0  0  0  0  0  0  0
   -1.1157   -4.9614   -3.4091 H   0  0  0  0  0  0  0  0  0  0  0  0
   -3.7743   -5.2810    0.0205 H   0  0  0  0  0  0  0  0  0  0  0  0
   -4.1710   -4.0853   -2.7763 H   0  0  0  0  0  0  0  0  0  0  0  0
   -3.6202   -5.7766   -2.4595 H   0  0  0  0  0  0  0  0  0  0  0  0
   -5.2201   -5.2365   -1.8711 H   0  0  0  0  0  0  0  0  0  0  0  0
   -3.4894   -2.2957   -0.5111 H   0  0  0  0  0  0  0  0  0  0  0  0
   -6.0099   -3.5977   -0.3763 H   0  0  0  0  0  0  0  0  0  0  0  0
   -2.6353   -4.5322    1.9222 H   0  0  0  0  0  0  0  0  0  0  0  0
   -1.9790   -2.8867    1.6093 H   0  0  0  0  0  0  0  0  0  0  0  0
   -2.8052   -3.2787    3.1542 H   0  0  0  0  0  0  0  0  0  0  0  0
   -5.0622   -4.0612    2.8565 H   0  0  0  0  0  0  0  0  0  0  0  0
  1  2  1  0
  2  3  1  0
  3  4  1  0
  4  5  1  0
  5  6  2  0
  5  7  1  0
  7  8  1  0
  7  9  1  0
  9 10  1  0
 10 11  1  0
 11 12  1  0
 12 13  1  0
 13 14  1  0
 13 15  1  6
 15 16  1  0
 13 17  1  0
 17 18  1  0
 17 19  1  0
 19 20  1  0
 19 21  1  0
  9 22  1  0
 22 23  1  0
 22 24  1  0
 24 25  1  0
 25 26  1  0
 26 27  1  0
 27 28  1  0
 28 29  1  0
 28 30  1  0
 30 31  1  0
 31 32  1  0
 32 33  1  0
 31 34  1  0
 34 35  1  0
 34 36  1  0
 24 37  1  0
 37 38  1  0
 37 39  1  6
 37 40  1  0
 40 41  1  0
 41 42  1  0
 41 43  1  0
 43 44  2  0
 43 45  1  0
 45 46  1  0
 45 47  1  0
 47 48  1  0
 47 49  1  0
 49 50  1  0
 49 51  1  1
 49  3  1  0
 21 11  1  0
 32 26  1  0
  1 52  1  0
  1 53  1  0
  1 54  1  0
  2 55  1  0
  2 56  1  0
  3 57  1  6
  7 58  1  1
  8 59  1  0
  8 60  1  0
  8 61  1  0
  9 62  1  6
 11 63  1  6
 12 64  1  0
 12 65  1  0
 14 66  1  0
 14 67  1  0
 14 68  1  0
 16 69  1  0
 16 70  1  0
 16 71  1  0
 17 72  1  1
 18 73  1  0
 19 74  1  6
 20 75  1  0
 20 76  1  0
 20 77  1  0
 22 78  1  1
 23 79  1  0
 23 80  1  0
 23 81  1  0
 24 82  1  6
 26 83  1  6
 28 84  1  6
 29 85  1  0
 29 86  1  0
 29 87  1  0
 30 88  1  0
 30 89  1  0
 31 90  1  6
 32 91  1  1
 33 92  1  0
 35 93  1  0
 35 94  1  0
 35 95  1  0
 36 96  1  0
 36 97  1  0
 36 98  1  0
 38 99  1  0
 38100  1  0
 38101  1  0
 39102  1  0
 40103  1  0
 40104  1  0
 41105  1  6
 42106  1  0
 42107  1  0
 42108  1  0
 45109  1  1
 46110  1  0
 46111  1  0
 46112  1  0
 47113  1  6
 48114  1  0
 50115  1  0
 50116  1  0
 50117  1  0
 51118  1  0
M  END
$$$$
