
     RDKit          3D

 27 26  0  0  0  0  0  0  0  0999 V2000
   -2.3783   -1.0262   -0.0956 C   0  0  0  0  0  0  0  0  0  0  0  0
   -1.4537    0.1325   -0.0225 N   0  0  0  0  0  4  0  0  0  0  0  0
   -1.9220    1.0252    1.0666 C   0  0  0  0  0  0  0  0  0  0  0  0
   -1.5123    0.8534   -1.3159 C   0  0  0  0  0  0  0  0  0  0  0  0
   -0.0801   -0.3937    0.2590 C   0  0  0  0  0  0  0  0  0  0  0  0
    1.0718    0.6605    0.2448 C   0  0  2  0  0  0  0  0  0  0  0  0
    1.4090    1.0582   -1.0626 O   0  0  0  0  0  0  0  0  0  0  0  0
    2.3276    0.1589    0.9896 C   0  0  0  0  0  0  0  0  0  0  0  0
    2.9175   -1.0783    0.3801 C   0  0  0  0  0  0  0  0  0  0  0  0
    3.8646   -0.9686   -0.6332 O   0  0  0  0  0  0  0  0  0  0  0  0
    2.5402   -2.2162    0.7683 O   0  0  0  0  0  0  0  0  0  0  0  0
   -2.0890   -1.7196   -0.9174 H   0  0  0  0  0  0  0  0  0  0  0  0
   -2.3738   -1.6027    0.8571 H   0  0  0  0  0  0  0  0  0  0  0  0
   -3.4257   -0.7003   -0.2872 H   0  0  0  0  0  0  0  0  0  0  0  0
   -1.8031    0.5414    2.0616 H   0  0  0  0  0  0  0  0  0  0  0  0
   -1.3736    1.9899    1.0784 H   0  0  0  0  0  0  0  0  0  0  0  0
   -2.9980    1.2811    0.9387 H   0  0  0  0  0  0  0  0  0  0  0  0
   -0.9622    1.8178   -1.2695 H   0  0  0  0  0  0  0  0  0  0  0  0
   -1.0811    0.2365   -2.1356 H   0  0  0  0  0  0  0  0  0  0  0  0
   -2.5627    1.1016   -1.5889 H   0  0  0  0  0  0  0  0  0  0  0  0
   -0.0804   -0.8927    1.2558 H   0  0  0  0  0  0  0  0  0  0  0  0
    0.1765   -1.1945   -0.4722 H   0  0  0  0  0  0  0  0  0  0  0  0
    0.7484    1.5664    0.7922 H   0  0  0  0  0  0  0  0  0  0  0  0
    1.6050    0.2426   -1.5923 H   0  0  0  0  0  0  0  0  0  0  0  0
    2.0748   -0.0398    2.0542 H   0  0  0  0  0  0  0  0  0  0  0  0
    3.0969    0.9612    0.9834 H   0  0  0  0  0  0  0  0  0  0  0  0
    4.2637   -1.7947   -1.0626 H   0  0  0  0  0  0  0  0  0  0  0  0
  1  2  1  0
  2  3  1  0
  2  4  1  0
  2  5  1  0
  5  6  1  0
  6  7  1  0
  6  8  1  0
  8  9  1  0
  9 10  1  0
  9 11  2  0
  1 12  1  0
  1 13  1  0
  1 14  1  0
  3 15  1  0
  3 16  1  0
  3 17  1  0
  4 18  1  0
  4 19  1  0
  4 20  1  0
  5 21  1  0
  5 22  1  0
  6 23  1  1
  7 24  1  0
  8 25  1  0
  8 26  1  0
 10 27  1  0
M  CHG  1   2   1
M  END
$$$$
