
     RDKit          3D

 60 63  0  0  0  0  0  0  0  0999 V2000
    1.9477   -0.3248   -0.8346 C   0  0  2  0  0  0  0  0  0  0  0  0
    2.9375   -1.3580   -1.3579 C   0  0  0  0  0  0  0  0  0  0  0  0
    4.3187   -0.7559   -1.0373 C   0  0  0  0  0  0  0  0  0  0  0  0
    4.0578    0.5171   -0.1872 C   0  0  2  0  0  0  0  0  0  0  0  0
    5.1190    0.8653    0.8470 C   0  0  0  0  0  0  0  0  0  0  0  0
    6.2979   -0.0196    1.1379 C   0  0  0  0  0  0  0  0  0  0  0  0
    5.0155    1.9179    1.4589 O   0  0  0  0  0  0  0  0  0  0  0  0
    2.6393    0.2962    0.3889 C   0  0  2  0  0  0  0  0  0  0  0  0
    2.7131   -0.6598    1.6255 C   0  0  0  0  0  0  0  0  0  0  0  0
    1.8742    1.5891    0.7583 C   0  0  0  0  0  0  0  0  0  0  0  0
    0.3775    1.2979    1.0279 C   0  0  0  0  0  0  0  0  0  0  0  0
   -0.3158    0.5412   -0.1533 C   0  0  1  0  0  0  0  0  0  0  0  0
    0.4905   -0.7474   -0.5491 C   0  0  1  0  0  0  0  0  0  0  0  0
   -0.1343   -1.4355   -1.7768 C   0  0  0  0  0  0  0  0  0  0  0  0
   -1.6110   -1.7602   -1.5390 C   0  0  0  0  0  0  0  0  0  0  0  0
   -2.3929   -0.4776   -1.2055 C   0  0  1  0  0  0  0  0  0  0  0  0
   -3.9136   -0.7433   -1.1380 C   0  0  0  0  0  0  0  0  0  0  0  0
   -4.7607    0.5355   -0.8195 C   0  0  2  0  0  0  0  0  0  0  0  0
   -5.6054    0.3458    0.4616 C   0  0  0  0  0  0  0  0  0  0  0  0
   -5.6382    0.7876   -1.8938 O   0  0  0  0  0  0  0  0  0  0  0  0
   -3.8681    1.7912   -0.6664 C   0  0  0  0  0  0  0  0  0  0  0  0
   -2.6478    1.6002    0.2608 C   0  0  0  0  0  0  0  0  0  0  0  0
   -1.8528    0.2514    0.0730 C   0  0  2  0  0  0  0  0  0  0  0  0
   -2.0510   -0.6259    1.3481 C   0  0  0  0  0  0  0  0  0  0  0  0
    1.8913    0.4526   -1.6374 H   0  0  0  0  0  0  0  0  0  0  0  0
    2.8004   -2.3294   -0.8339 H   0  0  0  0  0  0  0  0  0  0  0  0
    2.8138   -1.5137   -2.4519 H   0  0  0  0  0  0  0  0  0  0  0  0
    4.9126   -1.5198   -0.4950 H   0  0  0  0  0  0  0  0  0  0  0  0
    4.8577   -0.4891   -1.9725 H   0  0  0  0  0  0  0  0  0  0  0  0
    4.0226    1.3762   -0.8971 H   0  0  0  0  0  0  0  0  0  0  0  0
    6.9744    0.4617    1.8763 H   0  0  0  0  0  0  0  0  0  0  0  0
    5.9495   -0.9836    1.5632 H   0  0  0  0  0  0  0  0  0  0  0  0
    6.8730   -0.2029    0.2064 H   0  0  0  0  0  0  0  0  0  0  0  0
    3.2154   -0.1497    2.4743 H   0  0  0  0  0  0  0  0  0  0  0  0
    1.7207   -0.9762    1.9951 H   0  0  0  0  0  0  0  0  0  0  0  0
    3.2884   -1.5814    1.4019 H   0  0  0  0  0  0  0  0  0  0  0  0
    2.3230    2.0550    1.6618 H   0  0  0  0  0  0  0  0  0  0  0  0
    1.9511    2.3303   -0.0677 H   0  0  0  0  0  0  0  0  0  0  0  0
   -0.1190    2.2713    1.2129 H   0  0  0  0  0  0  0  0  0  0  0  0
    0.2883    0.7232    1.9691 H   0  0  0  0  0  0  0  0  0  0  0  0
   -0.2584    1.2328   -1.0262 H   0  0  0  0  0  0  0  0  0  0  0  0
    0.4833   -1.4877    0.2728 H   0  0  0  0  0  0  0  0  0  0  0  0
   -0.0385   -0.7820   -2.6723 H   0  0  0  0  0  0  0  0  0  0  0  0
    0.4030   -2.3849   -1.9894 H   0  0  0  0  0  0  0  0  0  0  0  0
   -1.7149   -2.5156   -0.7319 H   0  0  0  0  0  0  0  0  0  0  0  0
   -2.0207   -2.2132   -2.4683 H   0  0  0  0  0  0  0  0  0  0  0  0
   -2.2347    0.1985   -2.0776 H   0  0  0  0  0  0  0  0  0  0  0  0
   -4.1231   -1.5574   -0.4118 H   0  0  0  0  0  0  0  0  0  0  0  0
   -4.2243   -1.1553   -2.1240 H   0  0  0  0  0  0  0  0  0  0  0  0
   -6.3039    1.2008    0.5875 H   0  0  0  0  0  0  0  0  0  0  0  0
   -4.9734    0.2896    1.3686 H   0  0  0  0  0  0  0  0  0  0  0  0
   -6.2116   -0.5830    0.3952 H   0  0  0  0  0  0  0  0  0  0  0  0
   -6.2589    0.0155   -1.9739 H   0  0  0  0  0  0  0  0  0  0  0  0
   -3.5000    2.0960   -1.6715 H   0  0  0  0  0  0  0  0  0  0  0  0
   -4.4748    2.6472   -0.2959 H   0  0  0  0  0  0  0  0  0  0  0  0
   -1.9947    2.4753    0.0635 H   0  0  0  0  0  0  0  0  0  0  0  0
   -2.9861    1.7227    1.3129 H   0  0  0  0  0  0  0  0  0  0  0  0
   -3.1027   -0.9325    1.4814 H   0  0  0  0  0  0  0  0  0  0  0  0
   -1.7771   -0.0669    2.2658 H   0  0  0  0  0  0  0  0  0  0  0  0
   -1.4488   -1.5529    1.3294 H   0  0  0  0  0  0  0  0  0  0  0  0
  1  2  1  0
  2  3  1  0
  3  4  1  0
  4  5  1  0
  5  6  1  0
  5  7  2  0
  4  8  1  0
  8  9  1  1
  8 10  1  0
 10 11  1  0
 11 12  1  0
 12 13  1  0
 13 14  1  0
 14 15  1  0
 15 16  1  0
 16 17  1  0
 17 18  1  0
 18 19  1  0
 18 20  1  6
 18 21  1  0
 21 22  1  0
 22 23  1  0
 23 24  1  1
  8  1  1  0
 23 12  1  0
 13  1  1  0
 23 16  1  0
  1 25  1  6
  2 26  1  0
  2 27  1  0
  3 28  1  0
  3 29  1  0
  4 30  1  6
  6 31  1  0
  6 32  1  0
  6 33  1  0
  9 34  1  0
  9 35  1  0
  9 36  1  0
 10 37  1  0
 10 38  1  0
 11 39  1  0
 11 40  1  0
 12 41  1  6
 13 42  1  1
 14 43  1  0
 14 44  1  0
 15 45  1  0
 15 46  1  0
 16 47  1  6
 17 48  1  0
 17 49  1  0
 19 50  1  0
 19 51  1  0
 19 52  1  0
 20 53  1  0
 21 54  1  0
 21 55  1  0
 22 56  1  0
 22 57  1  0
 24 58  1  0
 24 59  1  0
 24 60  1  0
M  END
$$$$
