
     RDKit          3D

 64 67  0  0  0  0  0  0  0  0999 V2000
   -0.0735   -0.9476    0.0998 C   0  0  2  0  0  0  0  0  0  0  0  0
   -0.7381   -2.3107    0.0282 C   0  0  0  0  0  0  0  0  0  0  0  0
   -2.2370   -2.0002   -0.2233 C   0  0  2  0  0  0  0  0  0  0  0  0
   -2.8273   -3.0028   -1.2410 C   0  0  0  0  0  0  0  0  0  0  0  0
   -2.3216   -0.4514   -0.5726 C   0  0  2  0  0  0  0  0  0  0  0  0
   -2.6216    0.2948    0.6240 O   0  0  0  0  0  0  0  0  0  0  0  0
   -3.7681    0.2162    1.4283 C   0  0  0  0  0  0  0  0  0  0  0  0
   -4.6424   -0.6716    1.2502 O   0  0  0  0  0  0  0  0  0  0  0  0
   -3.9562    1.2275    2.5123 C   0  0  0  0  0  0  0  0  0  0  0  0
   -4.4594    2.5427    1.9298 C   0  0  0  0  0  0  0  0  0  0  0  0
   -3.3272   -0.0026   -1.6539 C   0  0  0  0  0  0  0  0  0  0  0  0
   -3.0551    0.9663   -2.3469 O   0  0  0  0  0  0  0  0  0  0  0  0
   -4.7289   -0.5385   -1.7822 C   0  0  0  0  0  0  0  0  0  0  0  0
   -4.9871   -1.2022   -3.4155 Cl  0  0  0  0  0  0  0  0  0  0  0  0
   -0.8238   -0.1090   -0.9462 C   0  0  2  0  0  0  0  0  0  0  0  0
   -0.4976   -0.5475   -2.4185 C   0  0  0  0  0  0  0  0  0  0  0  0
   -0.4046    1.3783   -0.7374 C   0  0  0  0  0  0  0  0  0  0  0  0
    1.1357    1.5923   -0.7909 C   0  0  2  0  0  0  0  0  0  0  0  0
    1.5932    1.4770   -2.1114 O   0  0  0  0  0  0  0  0  0  0  0  0
    1.9164    0.6322    0.1791 C   0  0  1  0  0  0  0  0  0  0  0  0
    1.5303    1.0094    1.4627 F   0  0  0  0  0  0  0  0  0  0  0  0
    1.4701   -0.8660   -0.0127 C   0  0  1  0  0  0  0  0  0  0  0  0
    2.1334   -1.7758    1.0463 C   0  0  0  0  0  0  0  0  0  0  0  0
    3.6565   -1.6719    1.0037 C   0  0  0  0  0  0  0  0  0  0  0  0
    4.0753   -0.2301    1.1396 C   0  0  0  0  0  0  0  0  0  0  0  0
    4.9426    0.1171    2.1042 C   0  0  0  0  0  0  0  0  0  0  0  0
    5.3276    1.5137    2.3008 C   0  0  0  0  0  0  0  0  0  0  0  0
    6.1565    1.8228    3.1967 O   0  0  0  0  0  0  0  0  0  0  0  0
    4.7321    2.5498    1.4619 C   0  0  0  0  0  0  0  0  0  0  0  0
    3.8745    2.2280    0.4929 C   0  0  0  0  0  0  0  0  0  0  0  0
    3.4941    0.7872    0.1421 C   0  0  2  0  0  0  0  0  0  0  0  0
    4.1293    0.4917   -1.2402 C   0  0  0  0  0  0  0  0  0  0  0  0
   -0.3238   -0.5551    1.1152 H   0  0  0  0  0  0  0  0  0  0  0  0
   -0.2827   -2.9008   -0.7979 H   0  0  0  0  0  0  0  0  0  0  0  0
   -0.6037   -2.8716    0.9794 H   0  0  0  0  0  0  0  0  0  0  0  0
   -2.7592   -2.1925    0.7372 H   0  0  0  0  0  0  0  0  0  0  0  0
   -3.8955   -3.1990   -1.0242 H   0  0  0  0  0  0  0  0  0  0  0  0
   -2.3285   -3.9919   -1.1545 H   0  0  0  0  0  0  0  0  0  0  0  0
   -2.7299   -2.6585   -2.2869 H   0  0  0  0  0  0  0  0  0  0  0  0
   -2.9854    1.3984    3.0249 H   0  0  0  0  0  0  0  0  0  0  0  0
   -4.6848    0.8519    3.2633 H   0  0  0  0  0  0  0  0  0  0  0  0
   -4.5931    3.2836    2.7458 H   0  0  0  0  0  0  0  0  0  0  0  0
   -3.7261    2.9468    1.1989 H   0  0  0  0  0  0  0  0  0  0  0  0
   -5.4364    2.3906    1.4228 H   0  0  0  0  0  0  0  0  0  0  0  0
   -5.4482    0.2928   -1.6252 H   0  0  0  0  0  0  0  0  0  0  0  0
   -4.9657   -1.3147   -1.0392 H   0  0  0  0  0  0  0  0  0  0  0  0
    0.5808   -0.6116   -2.6345 H   0  0  0  0  0  0  0  0  0  0  0  0
   -0.9081    0.1725   -3.1539 H   0  0  0  0  0  0  0  0  0  0  0  0
   -0.9007   -1.5433   -2.6642 H   0  0  0  0  0  0  0  0  0  0  0  0
   -0.8907    2.0265   -1.4968 H   0  0  0  0  0  0  0  0  0  0  0  0
   -0.7520    1.7459    0.2518 H   0  0  0  0  0  0  0  0  0  0  0  0
    1.3100    2.6370   -0.4466 H   0  0  0  0  0  0  0  0  0  0  0  0
    1.2972    2.2917   -2.5958 H   0  0  0  0  0  0  0  0  0  0  0  0
    1.7899   -1.2469   -0.9994 H   0  0  0  0  0  0  0  0  0  0  0  0
    1.7764   -1.5073    2.0654 H   0  0  0  0  0  0  0  0  0  0  0  0
    1.8569   -2.8357    0.8590 H   0  0  0  0  0  0  0  0  0  0  0  0
    4.0772   -2.3031    1.8174 H   0  0  0  0  0  0  0  0  0  0  0  0
    4.0351   -2.0803    0.0428 H   0  0  0  0  0  0  0  0  0  0  0  0
    5.3524   -0.6302    2.7735 H   0  0  0  0  0  0  0  0  0  0  0  0
    4.9934    3.5882    1.6255 H   0  0  0  0  0  0  0  0  0  0  0  0
    3.5012    3.0338   -0.1256 H   0  0  0  0  0  0  0  0  0  0  0  0
    3.7363   -0.4363   -1.6982 H   0  0  0  0  0  0  0  0  0  0  0  0
    5.2300    0.3727   -1.1348 H   0  0  0  0  0  0  0  0  0  0  0  0
    3.9799    1.3271   -1.9548 H   0  0  0  0  0  0  0  0  0  0  0  0
  1  2  1  0
  2  3  1  0
  3  4  1  0
  3  5  1  0
  5  6  1  1
  6  7  1  0
  7  8  2  0
  7  9  1  0
  9 10  1  0
  5 11  1  0
 11 12  2  0
 11 13  1  0
 13 14  1  0
  5 15  1  0
 15 16  1  6
 15 17  1  0
 17 18  1  0
 18 19  1  0
 18 20  1  0
 20 21  1  1
 20 22  1  0
 22 23  1  0
 23 24  1  0
 24 25  1  0
 25 26  2  0
 26 27  1  0
 27 28  2  0
 27 29  1  0
 29 30  2  0
 30 31  1  0
 31 32  1  6
 15  1  1  0
 31 20  1  0
 22  1  1  0
 31 25  1  0
  1 33  1  1
  2 34  1  0
  2 35  1  0
  3 36  1  1
  4 37  1  0
  4 38  1  0
  4 39  1  0
  9 40  1  0
  9 41  1  0
 10 42  1  0
 10 43  1  0
 10 44  1  0
 13 45  1  0
 13 46  1  0
 16 47  1  0
 16 48  1  0
 16 49  1  0
 17 50  1  0
 17 51  1  0
 18 52  1  1
 19 53  1  0
 22 54  1  6
 23 55  1  0
 23 56  1  0
 24 57  1  0
 24 58  1  0
 26 59  1  0
 29 60  1  0
 30 61  1  0
 32 62  1  0
 32 63  1  0
 32 64  1  0
M  END
$$$$
