
     RDKit          3D

 51 55  0  0  0  0  0  0  0  0999 V2000
    3.4567    1.9340    2.6362 C   0  0  0  0  0  0  0  0  0  0  0  0
    2.9107    1.2670    1.5033 O   0  0  0  0  0  0  0  0  0  0  0  0
    3.3913    1.4021    0.1900 C   0  0  0  0  0  0  0  0  0  0  0  0
    4.4989    2.2185   -0.1162 C   0  0  0  0  0  0  0  0  0  0  0  0
    4.9570    2.3242   -1.4317 C   0  0  0  0  0  0  0  0  0  0  0  0
    4.3179    1.6237   -2.4548 C   0  0  0  0  0  0  0  0  0  0  0  0
    3.2181    0.8140   -2.1666 C   0  0  0  0  0  0  0  0  0  0  0  0
    2.7518    0.6920   -0.8474 C   0  0  0  0  0  0  0  0  0  0  0  0
    1.5697   -0.1501   -0.5677 C   0  0  0  0  0  0  0  0  0  0  0  0
    0.4031    0.4342   -0.0260 C   0  0  0  0  0  0  0  0  0  0  0  0
   -0.7223   -0.3761    0.2125 C   0  0  0  0  0  0  0  0  0  0  0  0
   -0.7241   -1.7355   -0.0870 C   0  0  0  0  0  0  0  0  0  0  0  0
   -2.0030   -2.1878    0.2184 C   0  0  0  0  0  0  0  0  0  0  0  0
   -2.6971   -1.0879    0.6973 C   0  0  0  0  0  0  0  0  0  0  0  0
   -4.0440   -1.1815    1.0639 C   0  0  0  0  0  0  0  0  0  0  0  0
   -4.6820   -2.4250    0.9426 C   0  0  0  0  0  0  0  0  0  0  0  0
   -3.9839   -3.5446    0.4484 C   0  0  0  0  0  0  0  0  0  0  0  0
   -4.6480   -4.7632    0.3272 O   0  0  0  0  0  0  0  0  0  0  0  0
   -2.6306   -3.4292    0.0741 C   0  0  0  0  0  0  0  0  0  0  0  0
   -1.9178    0.0200    0.7130 N   0  0  0  0  0  0  0  0  0  0  0  0
   -2.3139    1.3812    1.0901 C   0  0  0  0  0  0  0  0  0  0  0  0
   -2.8494    2.1318   -0.1331 C   0  0  0  0  0  0  0  0  0  0  0  0
   -3.2786    3.5597    0.2182 C   0  0  0  0  0  0  0  0  0  0  0  0
   -2.1827    4.3198    0.6520 O   0  0  0  0  0  0  0  0  0  0  0  0
    0.4368   -2.3294   -0.6056 C   0  0  0  0  0  0  0  0  0  0  0  0
    1.5584   -1.5368   -0.8399 C   0  0  0  0  0  0  0  0  0  0  0  0
    2.6247   -2.4189   -1.3181 C   0  0  0  0  0  0  0  0  0  0  0  0
    3.8061   -2.0758   -1.5849 O   0  0  0  0  0  0  0  0  0  0  0  0
    2.1612   -3.7605   -1.3967 N   0  0  0  0  0  0  0  0  0  0  0  0
    0.8137   -3.7095   -0.9395 C   0  0  0  0  0  0  0  0  0  0  0  0
    0.1030   -4.7354   -0.7992 O   0  0  0  0  0  0  0  0  0  0  0  0
    3.3853    3.0341    2.5024 H   0  0  0  0  0  0  0  0  0  0  0  0
    2.8782    1.6477    3.5382 H   0  0  0  0  0  0  0  0  0  0  0  0
    4.5156    1.6333    2.7827 H   0  0  0  0  0  0  0  0  0  0  0  0
    5.0140    2.7739    0.6554 H   0  0  0  0  0  0  0  0  0  0  0  0
    5.8087    2.9525   -1.6583 H   0  0  0  0  0  0  0  0  0  0  0  0
    4.6727    1.7112   -3.4736 H   0  0  0  0  0  0  0  0  0  0  0  0
    2.7244    0.2849   -2.9728 H   0  0  0  0  0  0  0  0  0  0  0  0
    0.3763    1.4956    0.1826 H   0  0  0  0  0  0  0  0  0  0  0  0
   -4.5964   -0.3248    1.4242 H   0  0  0  0  0  0  0  0  0  0  0  0
   -5.7236   -2.5198    1.2221 H   0  0  0  0  0  0  0  0  0  0  0  0
   -4.1791   -5.5892   -0.0260 H   0  0  0  0  0  0  0  0  0  0  0  0
   -2.1243   -4.2842   -0.3306 H   0  0  0  0  0  0  0  0  0  0  0  0
   -1.4452    1.9206    1.5230 H   0  0  0  0  0  0  0  0  0  0  0  0
   -3.0886    1.3470    1.8850 H   0  0  0  0  0  0  0  0  0  0  0  0
   -2.0686    2.1647   -0.9238 H   0  0  0  0  0  0  0  0  0  0  0  0
   -3.7275    1.5845   -0.5398 H   0  0  0  0  0  0  0  0  0  0  0  0
   -4.0418    3.5337    1.0250 H   0  0  0  0  0  0  0  0  0  0  0  0
   -3.7475    4.0374   -0.6716 H   0  0  0  0  0  0  0  0  0  0  0  0
   -1.6453    4.5300   -0.1559 H   0  0  0  0  0  0  0  0  0  0  0  0
    2.7109   -4.6079   -1.6608 H   0  0  0  0  0  0  0  0  0  0  0  0
  1  2  1  0
  2  3  1  0
  3  4  2  0
  4  5  1  0
  5  6  2  0
  6  7  1  0
  7  8  2  0
  8  9  1  0
  9 10  2  0
 10 11  1  0
 11 12  2  0
 12 13  1  0
 13 14  2  0
 14 15  1  0
 15 16  2  0
 16 17  1  0
 17 18  1  0
 17 19  2  0
 14 20  1  0
 20 21  1  0
 21 22  1  0
 22 23  1  0
 23 24  1  0
 12 25  1  0
 25 26  2  0
 26 27  1  0
 27 28  2  0
 27 29  1  0
 29 30  1  0
 30 31  2  0
  8  3  1  0
 26  9  1  0
 20 11  1  0
 30 25  1  0
 19 13  1  0
  1 32  1  0
  1 33  1  0
  1 34  1  0
  4 35  1  0
  5 36  1  0
  6 37  1  0
  7 38  1  0
 10 39  1  0
 15 40  1  0
 16 41  1  0
 18 42  1  0
 19 43  1  0
 21 44  1  0
 21 45  1  0
 22 46  1  0
 22 47  1  0
 23 48  1  0
 23 49  1  0
 24 50  1  0
 29 51  1  0
M  END
$$$$
