
     RDKit          3D

 32 34  0  0  0  0  0  0  0  0999 V2000
    5.3264   -0.3618    0.2124 C   0  0  0  0  0  0  0  0  0  0  0  0
    4.2282    1.0241    0.0262 S   0  0  0  0  0  6  0  0  0  0  0  0
    4.1972    1.8167    1.3029 O   0  0  0  0  0  0  0  0  0  0  0  0
    4.7226    1.9124   -1.0809 O   0  0  0  0  0  0  0  0  0  0  0  0
    2.6111    0.4415   -0.3533 C   0  0  0  0  0  0  0  0  0  0  0  0
    1.7114    0.1396    0.6771 C   0  0  0  0  0  0  0  0  0  0  0  0
    0.4318   -0.3365    0.3772 C   0  0  0  0  0  0  0  0  0  0  0  0
    0.0327   -0.5074   -0.9608 C   0  0  0  0  0  0  0  0  0  0  0  0
   -1.2695   -1.0172   -1.2931 N   0  0  0  0  0  0  0  0  0  0  0  0
   -2.4255   -0.8741   -0.4532 C   0  0  0  0  0  0  0  0  0  0  0  0
   -3.3367   -1.9334   -0.3119 C   0  0  0  0  0  0  0  0  0  0  0  0
   -4.4695   -1.7535    0.5073 C   0  0  0  0  0  0  0  0  0  0  0  0
   -5.6151   -3.0618    0.7181 Cl  0  0  0  0  0  0  0  0  0  0  0  0
   -4.6870   -0.5610    1.1341 N   0  0  0  0  0  0  0  0  0  0  0  0
   -3.7931    0.4414    0.9567 C   0  0  0  0  0  0  0  0  0  0  0  0
   -3.8475    1.7207    1.4512 C   0  0  0  0  0  0  0  0  0  0  0  0
   -2.7145    2.3173    0.9048 C   0  0  0  0  0  0  0  0  0  0  0  0
   -2.0395    1.4313    0.1332 N   0  0  0  0  0  0  0  0  0  0  0  0
   -2.7089    0.2923    0.1882 N   0  0  0  0  0  0  0  0  0  0  0  0
    0.9481   -0.2319   -1.9870 C   0  0  0  0  0  0  0  0  0  0  0  0
    2.2277    0.2438   -1.6861 C   0  0  0  0  0  0  0  0  0  0  0  0
    5.3538   -0.9426   -0.7325 H   0  0  0  0  0  0  0  0  0  0  0  0
    6.3469    0.0019    0.4517 H   0  0  0  0  0  0  0  0  0  0  0  0
    4.9648   -1.0134    1.0344 H   0  0  0  0  0  0  0  0  0  0  0  0
    2.0023    0.2639    1.7123 H   0  0  0  0  0  0  0  0  0  0  0  0
   -0.2401   -0.5824    1.1893 H   0  0  0  0  0  0  0  0  0  0  0  0
   -1.3716   -1.5739   -2.1720 H   0  0  0  0  0  0  0  0  0  0  0  0
   -3.1662   -2.8773   -0.8143 H   0  0  0  0  0  0  0  0  0  0  0  0
   -4.5976    2.1643    2.0922 H   0  0  0  0  0  0  0  0  0  0  0  0
   -2.4077    3.3434    1.0555 H   0  0  0  0  0  0  0  0  0  0  0  0
    0.6657   -0.3793   -3.0219 H   0  0  0  0  0  0  0  0  0  0  0  0
    2.9193    0.4533   -2.4921 H   0  0  0  0  0  0  0  0  0  0  0  0
  1  2  1  0
  2  3  2  0
  2  4  2  0
  2  5  1  0
  5  6  2  0
  6  7  1  0
  7  8  2  0
  8  9  1  0
  9 10  1  0
 10 11  2  0
 11 12  1  0
 12 13  1  0
 12 14  2  0
 14 15  1  0
 15 16  2  0
 16 17  1  0
 17 18  2  0
 18 19  1  0
  8 20  1  0
 20 21  2  0
 21  5  1  0
 19 10  1  0
 19 15  1  0
  1 22  1  0
  1 23  1  0
  1 24  1  0
  6 25  1  0
  7 26  1  0
  9 27  1  0
 11 28  1  0
 16 29  1  0
 17 30  1  0
 20 31  1  0
 21 32  1  0
M  END
$$$$
