
     RDKit          3D

 38 39  0  0  0  0  0  0  0  0999 V2000
   -2.7492   -0.3967    2.6068 O   0  0  0  0  0  0  0  0  0  0  0  0
   -2.8940    0.8488    2.0040 C   0  0  0  0  0  0  0  0  0  0  0  0
   -3.9663    1.4955    2.1425 O   0  0  0  0  0  0  0  0  0  0  0  0
   -1.7622    1.4312    1.2194 C   0  0  0  0  0  0  0  0  0  0  0  0
   -1.2310    0.4630    0.3165 O   0  0  0  0  0  0  0  0  0  0  0  0
   -1.8663   -0.0122   -0.8455 C   0  0  0  0  0  0  0  0  0  0  0  0
   -3.0912    0.5217   -1.2950 C   0  0  0  0  0  0  0  0  0  0  0  0
   -3.6684    0.0680   -2.4844 C   0  0  0  0  0  0  0  0  0  0  0  0
   -5.1900    0.7455   -3.0354 Cl  0  0  0  0  0  0  0  0  0  0  0  0
   -3.0303   -0.9168   -3.2400 C   0  0  0  0  0  0  0  0  0  0  0  0
   -1.8216   -1.4607   -2.8028 C   0  0  0  0  0  0  0  0  0  0  0  0
   -1.2411   -1.0308   -1.5982 C   0  0  0  0  0  0  0  0  0  0  0  0
    0.0278   -1.6402   -1.1472 C   0  0  0  0  0  0  0  0  0  0  0  0
    0.9214   -1.9159   -1.9934 O   0  0  0  0  0  0  0  0  0  0  0  0
    0.2390   -1.9405    0.2398 N   0  0  0  0  0  0  0  0  0  0  0  0
    1.5750   -2.0738    0.8119 C   0  0  0  0  0  0  0  0  0  0  0  0
    2.2049   -0.7151    0.9475 C   0  0  0  0  0  0  0  0  0  0  0  0
    3.1559   -0.2726    0.0137 C   0  0  0  0  0  0  0  0  0  0  0  0
    3.7060    1.0189    0.1077 C   0  0  0  0  0  0  0  0  0  0  0  0
    3.2820    1.8663    1.1480 C   0  0  0  0  0  0  0  0  0  0  0  0
    2.3275    1.4318    2.0706 C   0  0  0  0  0  0  0  0  0  0  0  0
    1.7880    0.1486    1.9706 C   0  0  0  0  0  0  0  0  0  0  0  0
    4.6825    1.4658   -0.8509 N   0  0  0  0  0  4  0  0  0  0  0  0
    5.0930    0.6369   -1.8699 O   0  0  0  0  0  1  0  0  0  0  0  0
    5.1726    2.6116   -0.7739 O   0  0  0  0  0  0  0  0  0  0  0  0
   -3.5029   -0.8024    3.1485 H   0  0  0  0  0  0  0  0  0  0  0  0
   -2.0748    2.3450    0.6697 H   0  0  0  0  0  0  0  0  0  0  0  0
   -0.9627    1.7255    1.9302 H   0  0  0  0  0  0  0  0  0  0  0  0
   -3.5984    1.2968   -0.7385 H   0  0  0  0  0  0  0  0  0  0  0  0
   -3.4721   -1.2651   -4.1649 H   0  0  0  0  0  0  0  0  0  0  0  0
   -1.3473   -2.2326   -3.3967 H   0  0  0  0  0  0  0  0  0  0  0  0
   -0.5835   -1.9927    0.8827 H   0  0  0  0  0  0  0  0  0  0  0  0
    1.4986   -2.5423    1.8172 H   0  0  0  0  0  0  0  0  0  0  0  0
    2.1944   -2.7510    0.1845 H   0  0  0  0  0  0  0  0  0  0  0  0
    3.4610   -0.9340   -0.7873 H   0  0  0  0  0  0  0  0  0  0  0  0
    3.6847    2.8663    1.2452 H   0  0  0  0  0  0  0  0  0  0  0  0
    2.0009    2.0938    2.8623 H   0  0  0  0  0  0  0  0  0  0  0  0
    1.0381   -0.1698    2.6845 H   0  0  0  0  0  0  0  0  0  0  0  0
  1  2  1  0
  2  3  2  0
  2  4  1  0
  4  5  1  0
  5  6  1  0
  6  7  2  0
  7  8  1  0
  8  9  1  0
  8 10  2  0
 10 11  1  0
 11 12  2  0
 12 13  1  0
 13 14  2  0
 13 15  1  0
 15 16  1  0
 16 17  1  0
 17 18  2  0
 18 19  1  0
 19 20  2  0
 20 21  1  0
 21 22  2  0
 19 23  1  0
 23 24  1  0
 23 25  2  0
 12  6  1  0
 22 17  1  0
  1 26  1  0
  4 27  1  0
  4 28  1  0
  7 29  1  0
 10 30  1  0
 11 31  1  0
 15 32  1  0
 16 33  1  0
 16 34  1  0
 18 35  1  0
 20 36  1  0
 21 37  1  0
 22 38  1  0
M  CHG  2  23   1  24  -1
M  END
$$$$
