
     RDKit          3D

 24 24  0  0  0  0  0  0  0  0999 V2000
   -2.5469    0.4087    2.2732 C   0  0  0  0  0  0  0  0  0  0  0  0
   -2.6426    0.0980    0.8869 O   0  0  0  0  0  0  0  0  0  0  0  0
   -1.5713    0.1635   -0.0179 C   0  0  0  0  0  0  0  0  0  0  0  0
   -1.8068   -0.1761   -1.3580 C   0  0  0  0  0  0  0  0  0  0  0  0
   -3.0854   -0.5629   -1.7562 O   0  0  0  0  0  0  0  0  0  0  0  0
   -0.7616   -0.1289   -2.2898 C   0  0  0  0  0  0  0  0  0  0  0  0
    0.5193    0.2582   -1.8920 C   0  0  0  0  0  0  0  0  0  0  0  0
    0.7687    0.6117   -0.5579 C   0  0  0  0  0  0  0  0  0  0  0  0
    2.1583    0.9995   -0.1266 C   0  0  0  0  0  0  0  0  0  0  0  0
    3.0013   -0.2212    0.1149 C   0  0  0  0  0  0  0  0  0  0  0  0
    2.8064   -1.0112    1.1749 C   0  0  0  0  0  0  0  0  0  0  0  0
   -0.2769    0.5553    0.3780 C   0  0  0  0  0  0  0  0  0  0  0  0
   -3.5412    0.2705    2.7451 H   0  0  0  0  0  0  0  0  0  0  0  0
   -2.2339    1.4658    2.4069 H   0  0  0  0  0  0  0  0  0  0  0  0
   -1.8212   -0.2711    2.7677 H   0  0  0  0  0  0  0  0  0  0  0  0
   -3.2883   -0.8152   -2.7165 H   0  0  0  0  0  0  0  0  0  0  0  0
   -0.9410   -0.3956   -3.3236 H   0  0  0  0  0  0  0  0  0  0  0  0
    1.3182    0.2815   -2.6230 H   0  0  0  0  0  0  0  0  0  0  0  0
    2.1307    1.6270    0.7913 H   0  0  0  0  0  0  0  0  0  0  0  0
    2.6322    1.6132   -0.9230 H   0  0  0  0  0  0  0  0  0  0  0  0
    3.7966   -0.4598   -0.5850 H   0  0  0  0  0  0  0  0  0  0  0  0
    3.4345   -1.8832    1.3247 H   0  0  0  0  0  0  0  0  0  0  0  0
    2.0252   -0.7951    1.8973 H   0  0  0  0  0  0  0  0  0  0  0  0
   -0.0743    0.8149    1.4085 H   0  0  0  0  0  0  0  0  0  0  0  0
  1  2  1  0
  2  3  1  0
  3  4  2  0
  4  5  1  0
  4  6  1  0
  6  7  2  0
  7  8  1  0
  8  9  1  0
  9 10  1  0
 10 11  2  3
  8 12  2  0
 12  3  1  0
  1 13  1  0
  1 14  1  0
  1 15  1  0
  5 16  1  0
  6 17  1  0
  7 18  1  0
  9 19  1  0
  9 20  1  0
 10 21  1  0
 11 22  1  0
 11 23  1  0
 12 24  1  0
M  END
$$$$
