
     RDKit          3D

 41 44  0  0  0  0  0  0  0  0999 V2000
    3.8476    3.6902    0.4409 C   0  0  0  0  0  0  0  0  0  0  0  0
    2.9109    2.5301    0.6004 C   0  0  0  0  0  0  0  0  0  0  0  0
    1.8314    2.7148    1.2261 O   0  0  0  0  0  0  0  0  0  0  0  0
    3.2208    1.1856    0.0419 C   0  0  0  0  0  0  0  0  0  0  0  0
    4.4063    0.9501   -0.6801 C   0  0  0  0  0  0  0  0  0  0  0  0
    4.6857   -0.3195   -1.1883 C   0  0  0  0  0  0  0  0  0  0  0  0
    3.7888   -1.3697   -0.9917 C   0  0  0  0  0  0  0  0  0  0  0  0
    2.5932   -1.1600   -0.2870 C   0  0  0  0  0  0  0  0  0  0  0  0
    2.3224    0.1176    0.2353 C   0  0  0  0  0  0  0  0  0  0  0  0
    1.6464   -2.2823   -0.0839 C   0  0  0  0  0  0  0  0  0  0  0  0
    1.9612   -3.6329    0.0229 C   0  0  0  0  0  0  0  0  0  0  0  0
    0.8302   -4.3657    0.1861 N   0  0  0  0  0  0  0  0  0  0  0  0
   -0.1487   -3.4387    0.1681 C   0  0  0  0  0  0  0  0  0  0  0  0
   -1.5126   -3.6762    0.2690 C   0  0  0  0  0  0  0  0  0  0  0  0
   -2.3690   -2.5685    0.1868 C   0  0  0  0  0  0  0  0  0  0  0  0
   -1.8308   -1.2696   -0.0017 C   0  0  0  0  0  0  0  0  0  0  0  0
   -2.6643   -0.1026   -0.1024 N   0  0  0  0  0  0  0  0  0  0  0  0
   -4.1309   -0.1637   -0.0114 C   0  0  0  0  0  0  0  0  0  0  0  0
   -4.8880    1.1814   -0.1321 C   0  0  0  0  0  0  0  0  0  0  0  0
   -4.3378    2.2499   -1.0650 C   0  0  0  0  0  0  0  0  0  0  0  0
   -4.2503    2.4346    0.4489 C   0  0  0  0  0  0  0  0  0  0  0  0
   -0.4765   -1.1236   -0.0932 N   0  0  0  0  0  0  0  0  0  0  0  0
    0.3105   -2.1926    0.0091 N   0  0  0  0  0  0  0  0  0  0  0  0
    3.4382    4.5937    0.9412 H   0  0  0  0  0  0  0  0  0  0  0  0
    3.9851    3.9180   -0.6369 H   0  0  0  0  0  0  0  0  0  0  0  0
    4.8285    3.4492    0.9013 H   0  0  0  0  0  0  0  0  0  0  0  0
    5.1241    1.7403   -0.8537 H   0  0  0  0  0  0  0  0  0  0  0  0
    5.6013   -0.4895   -1.7403 H   0  0  0  0  0  0  0  0  0  0  0  0
    4.0232   -2.3421   -1.4061 H   0  0  0  0  0  0  0  0  0  0  0  0
    1.4253    0.2767    0.8180 H   0  0  0  0  0  0  0  0  0  0  0  0
    2.9543   -4.0609   -0.0067 H   0  0  0  0  0  0  0  0  0  0  0  0
   -1.9018   -4.6779    0.3982 H   0  0  0  0  0  0  0  0  0  0  0  0
   -3.4350   -2.7313    0.2623 H   0  0  0  0  0  0  0  0  0  0  0  0
   -2.1620    0.7989   -0.2431 H   0  0  0  0  0  0  0  0  0  0  0  0
   -4.4102   -0.6120    0.9656 H   0  0  0  0  0  0  0  0  0  0  0  0
   -4.5116   -0.8293   -0.8149 H   0  0  0  0  0  0  0  0  0  0  0  0
   -5.9969    1.1583   -0.0653 H   0  0  0  0  0  0  0  0  0  0  0  0
   -5.1170    2.8781   -1.5461 H   0  0  0  0  0  0  0  0  0  0  0  0
   -3.3778    2.0353   -1.5743 H   0  0  0  0  0  0  0  0  0  0  0  0
   -3.2358    2.3353    0.8824 H   0  0  0  0  0  0  0  0  0  0  0  0
   -4.9786    3.1706    0.8505 H   0  0  0  0  0  0  0  0  0  0  0  0
  1  2  1  0
  2  3  2  0
  2  4  1  0
  4  5  2  0
  5  6  1  0
  6  7  2  0
  7  8  1  0
  8  9  2  0
  8 10  1  0
 10 11  2  0
 11 12  1  0
 12 13  2  0
 13 14  1  0
 14 15  2  0
 15 16  1  0
 16 17  1  0
 17 18  1  0
 18 19  1  0
 19 20  1  0
 20 21  1  0
 16 22  2  0
 22 23  1  0
  9  4  1  0
 23 10  1  0
 23 13  1  0
 21 19  1  0
  1 24  1  0
  1 25  1  0
  1 26  1  0
  5 27  1  0
  6 28  1  0
  7 29  1  0
  9 30  1  0
 11 31  1  0
 14 32  1  0
 15 33  1  0
 17 34  1  0
 18 35  1  0
 18 36  1  0
 19 37  1  0
 20 38  1  0
 20 39  1  0
 21 40  1  0
 21 41  1  0
M  END
$$$$
