
     RDKit          3D

 43 47  0  0  0  0  0  0  0  0999 V2000
   -0.1869    4.1274   -0.9536 O   0  0  0  0  0  0  0  0  0  0  0  0
   -1.1536    3.3325   -0.8190 C   0  0  0  0  0  0  0  0  0  0  0  0
   -2.4912    3.6719   -1.1724 N   0  0  0  0  0  0  0  0  0  0  0  0
   -3.2426    2.4890   -0.9300 C   0  0  0  0  0  0  0  0  0  0  0  0
   -4.6083    2.3233   -1.1395 C   0  0  0  0  0  0  0  0  0  0  0  0
   -5.1822    1.0759   -0.8472 C   0  0  0  0  0  0  0  0  0  0  0  0
   -4.3909    0.0101   -0.3516 C   0  0  0  0  0  0  0  0  0  0  0  0
   -3.0054    0.2095   -0.1503 C   0  0  0  0  0  0  0  0  0  0  0  0
   -2.4576    1.4597   -0.4489 C   0  0  0  0  0  0  0  0  0  0  0  0
   -1.0764    1.9419   -0.3401 C   0  0  0  0  0  0  0  0  0  0  0  0
   -0.0138    1.2344    0.0701 C   0  0  0  0  0  0  0  0  0  0  0  0
    1.2977    1.8065    0.1917 N   0  0  0  0  0  0  0  0  0  0  0  0
    2.4855    1.0057    0.3228 C   0  0  0  0  0  0  0  0  0  0  0  0
    2.5393   -0.3173   -0.1637 C   0  0  0  0  0  0  0  0  0  0  0  0
    3.7174   -1.0592   -0.0293 C   0  0  0  0  0  0  0  0  0  0  0  0
    4.8434   -0.4967    0.5738 C   0  0  0  0  0  0  0  0  0  0  0  0
    6.0493   -1.3697    0.6651 C   0  0  0  0  0  0  0  0  0  0  0  0
    5.5307   -2.8901   -0.0890 S   0  0  0  0  0  6  0  0  0  0  0  0
    5.5752   -4.0318    0.8873 O   0  0  0  0  0  0  0  0  0  0  0  0
    6.3461   -3.2042   -1.3116 O   0  0  0  0  0  0  0  0  0  0  0  0
    3.8613   -2.4629   -0.5133 C   0  0  0  0  0  0  0  0  0  0  0  0
    4.8087    0.8175    1.0459 C   0  0  0  0  0  0  0  0  0  0  0  0
    3.6334    1.5667    0.9151 C   0  0  0  0  0  0  0  0  0  0  0  0
   -5.0294   -1.2918   -0.0542 C   0  0  0  0  0  0  0  0  0  0  0  0
   -4.4346   -2.4407    0.4288 C   0  0  0  0  0  0  0  0  0  0  0  0
   -5.3744   -3.3961    0.5571 N   0  0  0  0  0  0  0  0  0  0  0  0
   -6.5066   -2.7888    0.1460 C   0  0  0  0  0  0  0  0  0  0  0  0
   -6.3054   -1.5427   -0.2166 O   0  0  0  0  0  0  0  0  0  0  0  0
   -2.8369    4.5790   -1.5570 H   0  0  0  0  0  0  0  0  0  0  0  0
   -5.2138    3.1362   -1.5189 H   0  0  0  0  0  0  0  0  0  0  0  0
   -6.2446    0.9418   -1.0081 H   0  0  0  0  0  0  0  0  0  0  0  0
   -2.3721   -0.5803    0.2263 H   0  0  0  0  0  0  0  0  0  0  0  0
   -0.1579    0.1975    0.3425 H   0  0  0  0  0  0  0  0  0  0  0  0
    1.3915    2.8365    0.3289 H   0  0  0  0  0  0  0  0  0  0  0  0
    1.6883   -0.7650   -0.6596 H   0  0  0  0  0  0  0  0  0  0  0  0
    6.3286   -1.5381    1.7264 H   0  0  0  0  0  0  0  0  0  0  0  0
    6.8955   -0.9253    0.1002 H   0  0  0  0  0  0  0  0  0  0  0  0
    3.7157   -2.5123   -1.6129 H   0  0  0  0  0  0  0  0  0  0  0  0
    3.1447   -3.1304    0.0097 H   0  0  0  0  0  0  0  0  0  0  0  0
    5.6830    1.2576    1.5087 H   0  0  0  0  0  0  0  0  0  0  0  0
    3.6135    2.5849    1.2827 H   0  0  0  0  0  0  0  0  0  0  0  0
   -3.3919   -2.5862    0.6742 H   0  0  0  0  0  0  0  0  0  0  0  0
   -7.4721   -3.2759    0.1187 H   0  0  0  0  0  0  0  0  0  0  0  0
  1  2  2  0
  2  3  1  0
  3  4  1  0
  4  5  2  0
  5  6  1  0
  6  7  2  0
  7  8  1  0
  8  9  2  0
  9 10  1  0
 10 11  2  0
 11 12  1  0
 12 13  1  0
 13 14  2  0
 14 15  1  0
 15 16  2  0
 16 17  1  0
 17 18  1  0
 18 19  2  0
 18 20  2  0
 18 21  1  0
 16 22  1  0
 22 23  2  0
  7 24  1  0
 24 25  2  0
 25 26  1  0
 26 27  2  0
 27 28  1  0
 10  2  1  0
 23 13  1  0
 28 24  1  0
  9  4  1  0
 21 15  1  0
  3 29  1  0
  5 30  1  0
  6 31  1  0
  8 32  1  0
 11 33  1  0
 12 34  1  0
 14 35  1  0
 17 36  1  0
 17 37  1  0
 21 38  1  0
 21 39  1  0
 22 40  1  0
 23 41  1  0
 25 42  1  0
 27 43  1  0
M  END
$$$$
