
     RDKit          3D

 99103  0  0  0  0  0  0  0  0999 V2000
    0.6737    2.9485    5.9857 C   0  0  0  0  0  0  0  0  0  0  0  0
    1.9297    2.4092    6.3360 O   0  0  0  0  0  0  0  0  0  0  0  0
    2.2063    1.2584    5.5598 C   0  0  0  0  0  0  0  0  0  0  0  0
    3.0592    1.6303    4.3424 C   0  0  0  0  0  0  0  0  0  0  0  0
    3.4629    0.4681    3.6408 O   0  0  0  0  0  0  0  0  0  0  0  0
    2.5321    0.1624    2.6233 C   0  0  0  0  0  0  0  0  0  0  0  0
    2.9678   -1.0971    1.8911 C   0  0  0  0  0  0  0  0  0  0  0  0
    2.0315   -1.3706    0.8701 O   0  0  0  0  0  0  0  0  0  0  0  0
    2.4721   -2.4407    0.0574 C   0  0  0  0  0  0  0  0  0  0  0  0
    3.2479   -1.9166   -1.1550 C   0  0  0  0  0  0  0  0  0  0  0  0
    2.5378   -0.8713   -1.7954 O   0  0  0  0  0  0  0  0  0  0  0  0
    1.6870   -1.3661   -2.8137 C   0  0  0  0  0  0  0  0  0  0  0  0
    2.3294   -1.1723   -4.1872 C   0  0  0  0  0  0  0  0  0  0  0  0
    3.5062   -1.9569   -4.2801 O   0  0  0  0  0  0  0  0  0  0  0  0
    3.4982   -2.7997   -5.4168 C   0  0  0  0  0  0  0  0  0  0  0  0
    2.8235   -4.1355   -5.1008 C   0  0  0  0  0  0  0  0  0  0  0  0
    1.4325   -3.9418   -4.9653 O   0  0  0  0  0  0  0  0  0  0  0  0
    0.8227   -5.1414   -4.5431 C   0  0  0  0  0  0  0  0  0  0  0  0
   -0.6827   -4.9291   -4.4546 C   0  0  0  0  0  0  0  0  0  0  0  0
   -0.9676   -3.9772   -3.4496 O   0  0  0  0  0  0  0  0  0  0  0  0
   -2.3378   -3.6379   -3.5002 C   0  0  0  0  0  0  0  0  0  0  0  0
   -2.7196   -2.8530   -2.2517 C   0  0  0  0  0  0  0  0  0  0  0  0
   -2.0149   -1.6274   -2.2172 O   0  0  0  0  0  0  0  0  0  0  0  0
   -2.3242   -0.9024   -1.0349 C   0  0  1  0  0  0  0  0  0  0  0  0
   -1.2040   -1.1021   -0.0017 C   0  0  0  0  0  0  0  0  0  0  0  0
   -1.4777   -0.3939    1.3444 C   0  0  0  0  0  0  0  0  0  0  0  0
   -2.4325    0.8437    1.2624 C   0  0  1  0  0  0  0  0  0  0  0  0
   -3.7307    0.3856    1.5896 O   0  0  0  0  0  0  0  0  0  0  0  0
   -2.0502    1.9646    2.3028 C   0  0  1  0  0  0  0  0  0  0  0  0
   -0.6038    2.5213    2.1132 C   0  0  0  0  0  0  0  0  0  0  0  0
   -0.1808    2.6166    0.6700 C   0  0  0  0  0  0  0  0  0  0  0  0
    1.1078    3.0469    0.2987 C   0  0  0  0  0  0  0  0  0  0  0  0
    1.5482    2.8921   -1.0336 C   0  0  0  0  0  0  0  0  0  0  0  0
    0.7262    2.2476   -1.9813 C   0  0  0  0  0  0  0  0  0  0  0  0
    1.1608    2.0188   -3.2834 O   0  0  0  0  0  0  0  0  0  0  0  0
   -0.5357    1.8215   -1.5703 C   0  0  0  0  0  0  0  0  0  0  0  0
   -1.0019    2.0888   -0.3213 C   0  0  0  0  0  0  0  0  0  0  0  0
   -2.3782    1.5410   -0.1329 C   0  0  2  0  0  0  0  0  0  0  0  0
   -3.3928    2.7269   -0.2083 C   0  0  0  0  0  0  0  0  0  0  0  0
   -3.9643    3.1648    1.1555 C   0  0  0  0  0  0  0  0  0  0  0  0
   -2.9741    3.1413    2.2573 N   0  0  0  0  0  0  0  0  0  0  0  0
   -3.6492    3.3780    3.5522 C   0  0  0  0  0  0  0  0  0  0  0  0
   -2.6749    3.8700    4.5872 C   0  0  0  0  0  0  0  0  0  0  0  0
   -2.0615    5.0498    4.4624 C   0  0  0  0  0  0  0  0  0  0  0  0
   -2.4837    0.5952   -1.3915 C   0  0  1  0  0  0  0  0  0  0  0  0
   -1.4169    1.0131   -2.2577 O   0  0  0  0  0  0  0  0  0  0  0  0
    0.6259    3.2045    4.9051 H   0  0  0  0  0  0  0  0  0  0  0  0
    0.5178    3.8851    6.5590 H   0  0  0  0  0  0  0  0  0  0  0  0
   -0.1476    2.2484    6.2549 H   0  0  0  0  0  0  0  0  0  0  0  0
    2.7912    0.5558    6.1905 H   0  0  0  0  0  0  0  0  0  0  0  0
    1.2894    0.7053    5.2480 H   0  0  0  0  0  0  0  0  0  0  0  0
    3.9759    2.1415    4.7057 H   0  0  0  0  0  0  0  0  0  0  0  0
    2.5268    2.3708    3.7004 H   0  0  0  0  0  0  0  0  0  0  0  0
    2.4775    0.9899    1.8803 H   0  0  0  0  0  0  0  0  0  0  0  0
    1.5256   -0.0234    3.0562 H   0  0  0  0  0  0  0  0  0  0  0  0
    3.9854   -0.9255    1.4730 H   0  0  0  0  0  0  0  0  0  0  0  0
    3.0008   -1.9396    2.6184 H   0  0  0  0  0  0  0  0  0  0  0  0
    1.5744   -2.9836   -0.3057 H   0  0  0  0  0  0  0  0  0  0  0  0
    3.0861   -3.1916    0.6087 H   0  0  0  0  0  0  0  0  0  0  0  0
    4.2185   -1.5061   -0.8080 H   0  0  0  0  0  0  0  0  0  0  0  0
    3.5016   -2.7613   -1.8362 H   0  0  0  0  0  0  0  0  0  0  0  0
    1.3834   -2.4297   -2.6738 H   0  0  0  0  0  0  0  0  0  0  0  0
    0.7476   -0.7763   -2.7883 H   0  0  0  0  0  0  0  0  0  0  0  0
    1.5583   -1.3913   -4.9624 H   0  0  0  0  0  0  0  0  0  0  0  0
    2.6113   -0.1056   -4.3074 H   0  0  0  0  0  0  0  0  0  0  0  0
    3.0467   -2.3207   -6.3166 H   0  0  0  0  0  0  0  0  0  0  0  0
    4.5557   -3.0096   -5.6834 H   0  0  0  0  0  0  0  0  0  0  0  0
    3.0300   -4.8380   -5.9397 H   0  0  0  0  0  0  0  0  0  0  0  0
    3.2717   -4.5415   -4.1642 H   0  0  0  0  0  0  0  0  0  0  0  0
    1.1979   -5.4447   -3.5387 H   0  0  0  0  0  0  0  0  0  0  0  0
    1.0167   -5.9607   -5.2730 H   0  0  0  0  0  0  0  0  0  0  0  0
   -1.1584   -5.9038   -4.2025 H   0  0  0  0  0  0  0  0  0  0  0  0
   -1.0473   -4.5910   -5.4530 H   0  0  0  0  0  0  0  0  0  0  0  0
   -2.9826   -4.5475   -3.5354 H   0  0  0  0  0  0  0  0  0  0  0  0
   -2.5443   -3.0109   -4.3968 H   0  0  0  0  0  0  0  0  0  0  0  0
   -3.8168   -2.6645   -2.2906 H   0  0  0  0  0  0  0  0  0  0  0  0
   -2.4849   -3.4728   -1.3564 H   0  0  0  0  0  0  0  0  0  0  0  0
   -3.2813   -1.2394   -0.5726 H   0  0  0  0  0  0  0  0  0  0  0  0
   -1.0614   -2.1878    0.1873 H   0  0  0  0  0  0  0  0  0  0  0  0
   -0.2487   -0.7278   -0.4270 H   0  0  0  0  0  0  0  0  0  0  0  0
   -0.4957   -0.1215    1.7735 H   0  0  0  0  0  0  0  0  0  0  0  0
   -1.9074   -1.1349    2.0543 H   0  0  0  0  0  0  0  0  0  0  0  0
   -4.2473    0.2132    0.7625 H   0  0  0  0  0  0  0  0  0  0  0  0
   -2.0729    1.4837    3.3088 H   0  0  0  0  0  0  0  0  0  0  0  0
   -0.5138    3.5265    2.5767 H   0  0  0  0  0  0  0  0  0  0  0  0
    0.1138    1.8719    2.6527 H   0  0  0  0  0  0  0  0  0  0  0  0
    1.7787    3.4611    1.0407 H   0  0  0  0  0  0  0  0  0  0  0  0
    2.5411    3.2221   -1.3104 H   0  0  0  0  0  0  0  0  0  0  0  0
    2.0774    2.3200   -3.5925 H   0  0  0  0  0  0  0  0  0  0  0  0
   -2.9349    3.6131   -0.7038 H   0  0  0  0  0  0  0  0  0  0  0  0
   -4.2646    2.4538   -0.8401 H   0  0  0  0  0  0  0  0  0  0  0  0
   -4.3491    4.2022    1.0418 H   0  0  0  0  0  0  0  0  0  0  0  0
   -4.8478    2.5374    1.4081 H   0  0  0  0  0  0  0  0  0  0  0  0
   -4.1384    2.4448    3.9108 H   0  0  0  0  0  0  0  0  0  0  0  0
   -4.4463    4.1489    3.4491 H   0  0  0  0  0  0  0  0  0  0  0  0
   -2.4819    3.2598    5.4642 H   0  0  0  0  0  0  0  0  0  0  0  0
   -2.2416    5.6829    3.5988 H   0  0  0  0  0  0  0  0  0  0  0  0
   -1.3688    5.3856    5.2270 H   0  0  0  0  0  0  0  0  0  0  0  0
   -3.4465    0.7144   -1.9328 H   0  0  0  0  0  0  0  0  0  0  0  0
  1  2  1  0
  2  3  1  0
  3  4  1  0
  4  5  1  0
  5  6  1  0
  6  7  1  0
  7  8  1  0
  8  9  1  0
  9 10  1  0
 10 11  1  0
 11 12  1  0
 12 13  1  0
 13 14  1  0
 14 15  1  0
 15 16  1  0
 16 17  1  0
 17 18  1  0
 18 19  1  0
 19 20  1  0
 20 21  1  0
 21 22  1  0
 22 23  1  0
 23 24  1  0
 24 25  1  0
 25 26  1  0
 26 27  1  0
 27 28  1  1
 27 29  1  0
 29 30  1  0
 30 31  1  0
 31 32  2  0
 32 33  1  0
 33 34  2  0
 34 35  1  0
 34 36  1  0
 36 37  2  0
 37 38  1  0
 38 39  1  1
 39 40  1  0
 40 41  1  0
 41 42  1  0
 42 43  1  0
 43 44  2  3
 38 45  1  0
 45 46  1  0
 45 24  1  0
 38 27  1  0
 41 29  1  0
 37 31  1  0
 46 36  1  0
  1 47  1  0
  1 48  1  0
  1 49  1  0
  3 50  1  0
  3 51  1  0
  4 52  1  0
  4 53  1  0
  6 54  1  0
  6 55  1  0
  7 56  1  0
  7 57  1  0
  9 58  1  0
  9 59  1  0
 10 60  1  0
 10 61  1  0
 12 62  1  0
 12 63  1  0
 13 64  1  0
 13 65  1  0
 15 66  1  0
 15 67  1  0
 16 68  1  0
 16 69  1  0
 18 70  1  0
 18 71  1  0
 19 72  1  0
 19 73  1  0
 21 74  1  0
 21 75  1  0
 22 76  1  0
 22 77  1  0
 24 78  1  1
 25 79  1  0
 25 80  1  0
 26 81  1  0
 26 82  1  0
 28 83  1  0
 29 84  1  1
 30 85  1  0
 30 86  1  0
 32 87  1  0
 33 88  1  0
 35 89  1  0
 39 90  1  0
 39 91  1  0
 40 92  1  0
 40 93  1  0
 42 94  1  0
 42 95  1  0
 43 96  1  0
 44 97  1  0
 44 98  1  0
 45 99  1  6
M  END
$$$$
