
     RDKit          3D

 57 60  0  0  0  0  0  0  0  0999 V2000
   -3.4908   -3.7565    0.1317 C   0  0  0  0  0  0  0  0  0  0  0  0
   -3.7860   -2.3051   -0.2334 C   0  0  0  0  0  0  0  0  0  0  0  0
   -4.1582   -1.4867    1.0072 C   0  0  0  0  0  0  0  0  0  0  0  0
   -4.4115   -0.0484    0.6350 C   0  0  0  0  0  0  0  0  0  0  0  0
   -5.7031    0.4014    0.3471 C   0  0  0  0  0  0  0  0  0  0  0  0
   -6.8316   -0.2671    0.3772 O   0  0  0  0  0  0  0  0  0  0  0  0
   -7.8288    0.5079    0.0391 N   0  0  0  0  0  0  0  0  0  0  0  0
   -7.3190    1.7354   -0.2213 C   0  0  0  0  0  0  0  0  0  0  0  0
   -5.9556    1.6865   -0.0307 C   0  0  0  0  0  0  0  0  0  0  0  0
   -4.9463    2.6330   -0.1640 C   0  0  0  0  0  0  0  0  0  0  0  0
   -3.6285    2.2213    0.1022 C   0  0  0  0  0  0  0  0  0  0  0  0
   -3.3483    0.8810    0.4960 C   0  0  0  0  0  0  0  0  0  0  0  0
   -2.0388    0.4441    0.7482 O   0  0  0  0  0  0  0  0  0  0  0  0
   -0.8690    1.2389    0.5735 C   0  0  0  0  0  0  0  0  0  0  0  0
    0.3734    0.4123    0.9018 C   0  0  0  0  0  0  0  0  0  0  0  0
    0.5211   -0.7879   -0.0417 C   0  0  0  0  0  0  0  0  0  0  0  0
    1.7112   -1.5176    0.2567 O   0  0  0  0  0  0  0  0  0  0  0  0
    3.0153   -1.1251   -0.0865 C   0  0  0  0  0  0  0  0  0  0  0  0
    3.2843    0.0211   -0.8757 C   0  0  0  0  0  0  0  0  0  0  0  0
    4.6136    0.3226   -1.1614 C   0  0  0  0  0  0  0  0  0  0  0  0
    5.6495   -0.4510   -0.7083 C   0  0  0  0  0  0  0  0  0  0  0  0
    5.4214   -1.5861    0.0716 C   0  0  0  0  0  0  0  0  0  0  0  0
    4.0900   -1.9190    0.3771 C   0  0  0  0  0  0  0  0  0  0  0  0
    6.8290    0.0598   -1.1169 N   0  0  0  0  0  0  0  0  0  0  0  0
    8.1729   -0.4219   -0.8001 C   0  0  0  0  0  0  0  0  0  0  0  0
    8.5898    0.0746    0.5466 C   0  0  0  0  0  0  0  0  0  0  0  0
    8.4071   -0.7267    1.6690 O   0  0  0  0  0  0  0  0  0  0  0  0
    9.0688    1.2334    0.6704 O   0  0  0  0  0  0  0  0  0  0  0  0
    6.5318    1.1773   -1.8226 C   0  0  0  0  0  0  0  0  0  0  0  0
    5.1557    1.3687   -1.8777 C   0  0  0  0  0  0  0  0  0  0  0  0
   -8.1273    2.9186   -0.6529 C   0  0  0  0  0  0  0  0  0  0  0  0
   -9.4677    2.5834   -0.7160 F   0  0  0  0  0  0  0  0  0  0  0  0
   -7.9621    3.9492    0.2536 F   0  0  0  0  0  0  0  0  0  0  0  0
   -7.7069    3.3363   -1.9019 F   0  0  0  0  0  0  0  0  0  0  0  0
   -3.2296   -4.3247   -0.7858 H   0  0  0  0  0  0  0  0  0  0  0  0
   -4.3827   -4.2260    0.5989 H   0  0  0  0  0  0  0  0  0  0  0  0
   -2.6348   -3.8096    0.8379 H   0  0  0  0  0  0  0  0  0  0  0  0
   -2.8858   -1.8679   -0.7182 H   0  0  0  0  0  0  0  0  0  0  0  0
   -4.6250   -2.2792   -0.9629 H   0  0  0  0  0  0  0  0  0  0  0  0
   -3.3382   -1.5411    1.7562 H   0  0  0  0  0  0  0  0  0  0  0  0
   -5.0645   -1.9213    1.4832 H   0  0  0  0  0  0  0  0  0  0  0  0
   -5.1631    3.6490   -0.4675 H   0  0  0  0  0  0  0  0  0  0  0  0
   -2.8339    2.9466   -0.0037 H   0  0  0  0  0  0  0  0  0  0  0  0
   -0.8093    1.6012   -0.4762 H   0  0  0  0  0  0  0  0  0  0  0  0
   -0.9092    2.1137    1.2579 H   0  0  0  0  0  0  0  0  0  0  0  0
    0.3072    0.0493    1.9504 H   0  0  0  0  0  0  0  0  0  0  0  0
    1.2660    1.0679    0.8237 H   0  0  0  0  0  0  0  0  0  0  0  0
    0.5138   -0.4717   -1.1068 H   0  0  0  0  0  0  0  0  0  0  0  0
   -0.3428   -1.4702    0.1058 H   0  0  0  0  0  0  0  0  0  0  0  0
    2.4984    0.6590   -1.2548 H   0  0  0  0  0  0  0  0  0  0  0  0
    6.2365   -2.1972    0.4350 H   0  0  0  0  0  0  0  0  0  0  0  0
    3.8882   -2.7955    0.9795 H   0  0  0  0  0  0  0  0  0  0  0  0
    8.1943   -1.5323   -0.8176 H   0  0  0  0  0  0  0  0  0  0  0  0
    8.8945   -0.0656   -1.5674 H   0  0  0  0  0  0  0  0  0  0  0  0
    8.6679   -0.3970    2.5906 H   0  0  0  0  0  0  0  0  0  0  0  0
    7.2713    1.8298   -2.2689 H   0  0  0  0  0  0  0  0  0  0  0  0
    4.6259    2.1753   -2.3670 H   0  0  0  0  0  0  0  0  0  0  0  0
  1  2  1  0
  2  3  1  0
  3  4  1  0
  4  5  2  0
  5  6  1  0
  6  7  1  0
  7  8  2  0
  8  9  1  0
  9 10  2  0
 10 11  1  0
 11 12  2  0
 12 13  1  0
 13 14  1  0
 14 15  1  0
 15 16  1  0
 16 17  1  0
 17 18  1  0
 18 19  2  0
 19 20  1  0
 20 21  2  0
 21 22  1  0
 22 23  2  0
 21 24  1  0
 24 25  1  0
 25 26  1  0
 26 27  1  0
 26 28  2  0
 24 29  1  0
 29 30  2  0
  8 31  1  0
 31 32  1  0
 31 33  1  0
 31 34  1  0
 12  4  1  0
 23 18  1  0
  9  5  1  0
 30 20  1  0
  1 35  1  0
  1 36  1  0
  1 37  1  0
  2 38  1  0
  2 39  1  0
  3 40  1  0
  3 41  1  0
 10 42  1  0
 11 43  1  0
 14 44  1  0
 14 45  1  0
 15 46  1  0
 15 47  1  0
 16 48  1  0
 16 49  1  0
 19 50  1  0
 22 51  1  0
 23 52  1  0
 25 53  1  0
 25 54  1  0
 27 55  1  0
 29 56  1  0
 30 57  1  0
M  END
$$$$
