
     RDKit          3D

 55 54  0  0  0  0  0  0  0  0999 V2000
   -9.2227   -1.4274   -0.8247 C   0  0  0  0  0  0  0  0  0  0  0  0
   -8.8419   -0.2996    0.1340 C   0  0  0  0  0  0  0  0  0  0  0  0
   -7.3620   -0.3443    0.5444 C   0  0  0  0  0  0  0  0  0  0  0  0
   -6.4171    0.0053   -0.6186 C   0  0  0  0  0  0  0  0  0  0  0  0
   -4.9650    0.2068   -0.1574 C   0  0  0  0  0  0  0  0  0  0  0  0
   -4.3128   -1.1007    0.3256 C   0  0  0  0  0  0  0  0  0  0  0  0
   -2.7968   -0.9606    0.5355 C   0  0  0  0  0  0  0  0  0  0  0  0
   -2.4429   -0.0783    1.7406 C   0  0  0  0  0  0  0  0  0  0  0  0
   -1.0549   -0.1550    2.0077 O   0  0  0  0  0  0  0  0  0  0  0  0
   -0.3709    0.9185    1.3947 C   0  0  0  0  0  0  0  0  0  0  0  0
    1.1288    0.7177    1.5645 C   0  0  0  0  0  0  0  0  0  0  0  0
    1.8126    1.7979    0.9632 O   0  0  0  0  0  0  0  0  0  0  0  0
    3.2089    1.5670    0.9706 C   0  0  0  0  0  0  0  0  0  0  0  0
    3.6562    0.9895   -0.3743 C   0  0  0  0  0  0  0  0  0  0  0  0
    5.0672    0.8887   -0.4178 O   0  0  0  0  0  0  0  0  0  0  0  0
    5.4810   -0.4210   -0.0855 C   0  0  0  0  0  0  0  0  0  0  0  0
    7.0009   -0.4626    0.0082 C   0  0  0  0  0  0  0  0  0  0  0  0
    7.5565   -0.1230   -1.2448 O   0  0  0  0  0  0  0  0  0  0  0  0
    8.9656   -0.1476   -1.1570 C   0  0  0  0  0  0  0  0  0  0  0  0
    9.5633    0.2098   -2.5153 C   0  0  0  0  0  0  0  0  0  0  0  0
    9.1546   -0.7100   -3.4914 O   0  0  0  0  0  0  0  0  0  0  0  0
  -10.3198   -1.4117   -0.9952 H   0  0  0  0  0  0  0  0  0  0  0  0
   -8.9461   -2.4134   -0.3946 H   0  0  0  0  0  0  0  0  0  0  0  0
   -8.7190   -1.2965   -1.8047 H   0  0  0  0  0  0  0  0  0  0  0  0
   -9.4634   -0.3965    1.0505 H   0  0  0  0  0  0  0  0  0  0  0  0
   -9.0812    0.6814   -0.3310 H   0  0  0  0  0  0  0  0  0  0  0  0
   -7.2126    0.3895    1.3663 H   0  0  0  0  0  0  0  0  0  0  0  0
   -7.1225   -1.3534    0.9430 H   0  0  0  0  0  0  0  0  0  0  0  0
   -6.7598    0.9511   -1.0926 H   0  0  0  0  0  0  0  0  0  0  0  0
   -6.4495   -0.7917   -1.3921 H   0  0  0  0  0  0  0  0  0  0  0  0
   -4.3850    0.6055   -1.0184 H   0  0  0  0  0  0  0  0  0  0  0  0
   -4.9396    0.9698    0.6496 H   0  0  0  0  0  0  0  0  0  0  0  0
   -4.7857   -1.4383    1.2726 H   0  0  0  0  0  0  0  0  0  0  0  0
   -4.4800   -1.8922   -0.4374 H   0  0  0  0  0  0  0  0  0  0  0  0
   -2.3258   -0.5551   -0.3855 H   0  0  0  0  0  0  0  0  0  0  0  0
   -2.3749   -1.9750    0.7067 H   0  0  0  0  0  0  0  0  0  0  0  0
   -2.9772   -0.4660    2.6340 H   0  0  0  0  0  0  0  0  0  0  0  0
   -2.8027    0.9661    1.5872 H   0  0  0  0  0  0  0  0  0  0  0  0
   -0.6562    1.8807    1.8777 H   0  0  0  0  0  0  0  0  0  0  0  0
   -0.5961    0.9700    0.3049 H   0  0  0  0  0  0  0  0  0  0  0  0
    1.4087   -0.2507    1.0898 H   0  0  0  0  0  0  0  0  0  0  0  0
    1.3596    0.6766    2.6533 H   0  0  0  0  0  0  0  0  0  0  0  0
    3.5487    0.9144    1.8094 H   0  0  0  0  0  0  0  0  0  0  0  0
    3.7145    2.5456    1.1142 H   0  0  0  0  0  0  0  0  0  0  0  0
    3.3406    1.6906   -1.1760 H   0  0  0  0  0  0  0  0  0  0  0  0
    3.1333    0.0255   -0.5796 H   0  0  0  0  0  0  0  0  0  0  0  0
    5.1544   -1.1411   -0.8700 H   0  0  0  0  0  0  0  0  0  0  0  0
    5.0638   -0.7365    0.8980 H   0  0  0  0  0  0  0  0  0  0  0  0
    7.3021   -1.4933    0.3051 H   0  0  0  0  0  0  0  0  0  0  0  0
    7.3243    0.2565    0.7958 H   0  0  0  0  0  0  0  0  0  0  0  0
    9.3260    0.6001   -0.4140 H   0  0  0  0  0  0  0  0  0  0  0  0
    9.3296   -1.1594   -0.8649 H   0  0  0  0  0  0  0  0  0  0  0  0
    9.2193    1.2234   -2.8121 H   0  0  0  0  0  0  0  0  0  0  0  0
   10.6746    0.2337   -2.4455 H   0  0  0  0  0  0  0  0  0  0  0  0
    9.6892   -1.5341   -3.3466 H   0  0  0  0  0  0  0  0  0  0  0  0
  1  2  1  0
  2  3  1  0
  3  4  1  0
  4  5  1  0
  5  6  1  0
  6  7  1  0
  7  8  1  0
  8  9  1  0
  9 10  1  0
 10 11  1  0
 11 12  1  0
 12 13  1  0
 13 14  1  0
 14 15  1  0
 15 16  1  0
 16 17  1  0
 17 18  1  0
 18 19  1  0
 19 20  1  0
 20 21  1  0
  1 22  1  0
  1 23  1  0
  1 24  1  0
  2 25  1  0
  2 26  1  0
  3 27  1  0
  3 28  1  0
  4 29  1  0
  4 30  1  0
  5 31  1  0
  5 32  1  0
  6 33  1  0
  6 34  1  0
  7 35  1  0
  7 36  1  0
  8 37  1  0
  8 38  1  0
 10 39  1  0
 10 40  1  0
 11 41  1  0
 11 42  1  0
 13 43  1  0
 13 44  1  0
 14 45  1  0
 14 46  1  0
 16 47  1  0
 16 48  1  0
 17 49  1  0
 17 50  1  0
 19 51  1  0
 19 52  1  0
 20 53  1  0
 20 54  1  0
 21 55  1  0
M  END
$$$$
