
     RDKit          3D

 32 34  0  0  0  0  0  0  0  0999 V2000
   -4.2415   -1.9834   -0.9999 C   0  0  0  0  0  0  0  0  0  0  0  0
   -3.3381   -0.8966   -0.5173 C   0  0  0  0  0  0  0  0  0  0  0  0
   -3.7525    0.3398   -0.0584 C   0  0  0  0  0  0  0  0  0  0  0  0
   -2.5987    1.0655    0.1690 C   0  0  0  0  0  0  0  0  0  0  0  0
   -2.5320    2.5022    0.5789 C   0  0  0  0  0  0  0  0  0  0  0  0
   -1.5346    0.2459   -0.1696 C   0  0  0  0  0  0  0  0  0  0  0  0
   -1.9948   -0.9438   -0.6057 N   0  0  0  0  0  0  0  0  0  0  0  0
   -0.1217    0.6617   -0.2218 C   0  0  0  0  0  0  0  0  0  0  0  0
    0.9044   -0.1192    0.1463 C   0  0  0  0  0  0  0  0  0  0  0  0
    0.8967   -1.4366    0.8058 C   0  0  0  0  0  0  0  0  0  0  0  0
   -0.1226   -2.0634    1.1968 O   0  0  0  0  0  0  0  0  0  0  0  0
    2.2256   -1.8875    1.0525 N   0  0  0  0  0  0  0  0  0  0  0  0
    3.0592   -0.8366    0.5797 C   0  0  0  0  0  0  0  0  0  0  0  0
    4.4522   -0.8029    0.6256 C   0  0  0  0  0  0  0  0  0  0  0  0
    5.1079    0.3292    0.1139 C   0  0  0  0  0  0  0  0  0  0  0  0
    4.3667    1.3987   -0.4286 C   0  0  0  0  0  0  0  0  0  0  0  0
    2.9628    1.3466   -0.4637 C   0  0  0  0  0  0  0  0  0  0  0  0
    2.3291    0.2127    0.0516 C   0  0  0  0  0  0  0  0  0  0  0  0
   -3.7524   -2.9707   -0.8640 H   0  0  0  0  0  0  0  0  0  0  0  0
   -4.4620   -1.8300   -2.0766 H   0  0  0  0  0  0  0  0  0  0  0  0
   -5.1921   -1.9736   -0.4260 H   0  0  0  0  0  0  0  0  0  0  0  0
   -4.7722    0.6836    0.0576 H   0  0  0  0  0  0  0  0  0  0  0  0
   -1.6935    2.6549    1.2903 H   0  0  0  0  0  0  0  0  0  0  0  0
   -3.4782    2.8050    1.0749 H   0  0  0  0  0  0  0  0  0  0  0  0
   -2.3721    3.1359   -0.3180 H   0  0  0  0  0  0  0  0  0  0  0  0
   -1.4303   -1.7252   -1.0081 H   0  0  0  0  0  0  0  0  0  0  0  0
    0.0844    1.6661   -0.5679 H   0  0  0  0  0  0  0  0  0  0  0  0
    2.5197   -2.7644    1.5369 H   0  0  0  0  0  0  0  0  0  0  0  0
    5.0145   -1.6273    1.0444 H   0  0  0  0  0  0  0  0  0  0  0  0
    6.1887    0.3805    0.1365 H   0  0  0  0  0  0  0  0  0  0  0  0
    4.8822    2.2657   -0.8209 H   0  0  0  0  0  0  0  0  0  0  0  0
    2.3954    2.1672   -0.8815 H   0  0  0  0  0  0  0  0  0  0  0  0
  1  2  1  0
  2  3  2  0
  3  4  1  0
  4  5  1  0
  4  6  2  0
  6  7  1  0
  6  8  1  0
  8  9  2  0
  9 10  1  0
 10 11  2  0
 10 12  1  0
 12 13  1  0
 13 14  2  0
 14 15  1  0
 15 16  2  0
 16 17  1  0
 17 18  2  0
  7  2  1  0
 18  9  1  0
 18 13  1  0
  1 19  1  0
  1 20  1  0
  1 21  1  0
  3 22  1  0
  5 23  1  0
  5 24  1  0
  5 25  1  0
  7 26  1  0
  8 27  1  0
 12 28  1  0
 14 29  1  0
 15 30  1  0
 16 31  1  0
 17 32  1  0
M  END
$$$$
