
     RDKit          3D

111116  0  0  0  0  0  0  0  0999 V2000
   -6.0493    2.6145   -1.3644 C   0  0  2  0  0  0  0  0  0  0  0  0
   -5.8371    3.6979   -0.2896 C   0  0  0  0  0  0  0  0  0  0  0  0
   -4.8255    3.3543    0.8206 C   0  0  2  0  0  0  0  0  0  0  0  0
   -4.6043    4.5176    1.5863 O   0  0  0  0  0  0  0  0  0  0  0  0
   -3.4560    2.7641    0.2869 C   0  0  1  0  0  0  0  0  0  0  0  0
   -2.8993    3.8893   -0.6635 C   0  0  0  0  0  0  0  0  0  0  0  0
   -2.4914    2.6527    1.5625 C   0  0  0  0  0  0  0  0  0  0  0  0
   -3.0285    2.6617    2.6646 O   0  0  0  0  0  0  0  0  0  0  0  0
   -0.9258    2.5700    1.6419 C   0  0  2  0  0  0  0  0  0  0  0  0
   -0.3705    3.6023    0.8693 O   0  0  0  0  0  0  0  0  0  0  0  0
   -0.2602    1.1916    1.3123 C   0  0  0  0  0  0  0  0  0  0  0  0
    0.9283    1.1542    0.5932 C   0  0  0  0  0  0  0  0  0  0  0  0
    2.0501    2.1077    0.9106 C   0  0  0  0  0  0  0  0  0  0  0  0
    1.0425    0.3550   -0.7648 C   0  0  2  0  0  0  0  0  0  0  0  0
   -0.2981   -0.3467   -1.2839 C   0  0  0  0  0  0  0  0  0  0  0  0
   -1.4744    0.3272   -0.5351 C   0  0  1  0  0  0  0  0  0  0  0  0
   -1.2687    1.6692   -0.9214 O   0  0  0  0  0  0  0  0  0  0  0  0
   -2.9448    0.1384   -0.9220 C   0  0  1  0  0  0  0  0  0  0  0  0
   -3.4408   -1.1238   -0.4679 O   0  0  0  0  0  0  0  0  0  0  0  0
   -3.2188   -2.3405   -1.1239 C   0  0  0  0  0  0  0  0  0  0  0  0
   -2.5778   -2.3707   -2.2104 O   0  0  0  0  0  0  0  0  0  0  0  0
   -3.7550   -3.5891   -0.5433 C   0  0  0  0  0  0  0  0  0  0  0  0
   -4.5371   -3.5480    0.6253 C   0  0  0  0  0  0  0  0  0  0  0  0
   -5.0471   -4.7273    1.1765 C   0  0  0  0  0  0  0  0  0  0  0  0
   -4.7829   -5.9568    0.5689 C   0  0  0  0  0  0  0  0  0  0  0  0
   -4.0082   -6.0095   -0.5922 C   0  0  0  0  0  0  0  0  0  0  0  0
   -3.4958   -4.8332   -1.1481 C   0  0  0  0  0  0  0  0  0  0  0  0
   -3.9164    1.3329   -0.4154 C   0  0  2  0  0  0  0  0  0  0  0  0
   -5.0935    1.4301   -1.4398 C   0  0  2  0  0  0  0  0  0  0  0  0
   -4.7426    2.0124   -2.7960 C   0  0  0  0  0  0  0  0  0  0  0  0
   -5.6533    3.0803   -2.6407 O   0  0  0  0  0  0  0  0  0  0  0  0
   -5.7731    0.1586   -1.5246 O   0  0  0  0  0  0  0  0  0  0  0  0
   -6.8299   -0.2135   -2.3724 C   0  0  0  0  0  0  0  0  0  0  0  0
   -7.3286   -1.6175   -2.3278 C   0  0  0  0  0  0  0  0  0  0  0  0
   -7.3442    0.5988   -3.1874 O   0  0  0  0  0  0  0  0  0  0  0  0
   -1.1746    0.0280    1.0254 C   0  0  0  0  0  0  0  0  0  0  0  0
   -2.3567   -0.1533    2.0499 C   0  0  0  0  0  0  0  0  0  0  0  0
   -0.4042   -1.3237    1.3438 C   0  0  0  0  0  0  0  0  0  0  0  0
    2.1109   -0.5863   -0.6779 O   0  0  0  0  0  0  0  0  0  0  0  0
    2.7097   -1.1878   -1.7900 C   0  0  0  0  0  0  0  0  0  0  0  0
    2.3325   -0.8991   -2.9586 O   0  0  0  0  0  0  0  0  0  0  0  0
    3.8360   -2.1588   -1.5866 C   0  0  2  0  0  0  0  0  0  0  0  0
    3.4331   -3.1331   -0.6575 O   0  0  0  0  0  0  0  0  0  0  0  0
    5.1063   -1.4183   -1.1021 C   0  0  1  0  0  0  0  0  0  0  0  0
    4.9102   -0.8221    0.2264 N   0  0  0  0  0  0  0  0  0  0  0  0
    5.7067    0.2675    0.7025 C   0  0  0  0  0  0  0  0  0  0  0  0
    6.6469    0.7200   -0.0054 O   0  0  0  0  0  0  0  0  0  0  0  0
    5.4159    0.8183    1.9591 O   0  0  0  0  0  0  0  0  0  0  0  0
    6.0689    1.9417    2.5678 C   0  0  0  0  0  0  0  0  0  0  0  0
    5.9096    3.2022    1.6958 C   0  0  0  0  0  0  0  0  0  0  0  0
    5.3825    2.1858    3.9202 C   0  0  0  0  0  0  0  0  0  0  0  0
    7.5584    1.6346    2.8120 C   0  0  0  0  0  0  0  0  0  0  0  0
    6.3048   -2.3465   -1.0972 C   0  0  0  0  0  0  0  0  0  0  0  0
    7.1520   -2.4002   -2.2184 C   0  0  0  0  0  0  0  0  0  0  0  0
    8.2460   -3.2706   -2.2379 C   0  0  0  0  0  0  0  0  0  0  0  0
    8.4994   -4.1024   -1.1447 C   0  0  0  0  0  0  0  0  0  0  0  0
    7.6565   -4.0690   -0.0315 C   0  0  0  0  0  0  0  0  0  0  0  0
    6.5612   -3.2005   -0.0069 C   0  0  0  0  0  0  0  0  0  0  0  0
   -7.1180    2.3086   -1.3833 H   0  0  0  0  0  0  0  0  0  0  0  0
   -5.5645    4.6627   -0.7699 H   0  0  0  0  0  0  0  0  0  0  0  0
   -6.8179    3.8930    0.1977 H   0  0  0  0  0  0  0  0  0  0  0  0
   -5.3088    2.5924    1.4793 H   0  0  0  0  0  0  0  0  0  0  0  0
   -5.4091    4.6548    2.1521 H   0  0  0  0  0  0  0  0  0  0  0  0
   -2.8606    4.8549   -0.1163 H   0  0  0  0  0  0  0  0  0  0  0  0
   -1.8767    3.7888   -1.0437 H   0  0  0  0  0  0  0  0  0  0  0  0
   -3.5315    4.0720   -1.5449 H   0  0  0  0  0  0  0  0  0  0  0  0
   -0.6332    2.7566    2.7024 H   0  0  0  0  0  0  0  0  0  0  0  0
   -0.5725    4.4557    1.3358 H   0  0  0  0  0  0  0  0  0  0  0  0
    1.9710    2.4901    1.9506 H   0  0  0  0  0  0  0  0  0  0  0  0
    2.0417    2.9584    0.1980 H   0  0  0  0  0  0  0  0  0  0  0  0
    3.0193    1.5790    0.8130 H   0  0  0  0  0  0  0  0  0  0  0  0
    1.3182    1.1147   -1.5307 H   0  0  0  0  0  0  0  0  0  0  0  0
   -0.3928   -0.1984   -2.3826 H   0  0  0  0  0  0  0  0  0  0  0  0
   -0.2786   -1.4478   -1.1582 H   0  0  0  0  0  0  0  0  0  0  0  0
   -1.3568    1.7664   -1.9110 H   0  0  0  0  0  0  0  0  0  0  0  0
   -2.9737    0.1303   -2.0351 H   0  0  0  0  0  0  0  0  0  0  0  0
   -4.7592   -2.6064    1.1117 H   0  0  0  0  0  0  0  0  0  0  0  0
   -5.6488   -4.6875    2.0754 H   0  0  0  0  0  0  0  0  0  0  0  0
   -5.1788   -6.8685    0.9973 H   0  0  0  0  0  0  0  0  0  0  0  0
   -3.8042   -6.9630   -1.0623 H   0  0  0  0  0  0  0  0  0  0  0  0
   -2.8969   -4.8981   -2.0479 H   0  0  0  0  0  0  0  0  0  0  0  0
   -4.4786    0.8472    0.4005 H   0  0  0  0  0  0  0  0  0  0  0  0
   -5.0164    1.3693   -3.6583 H   0  0  0  0  0  0  0  0  0  0  0  0
   -3.6967    2.3676   -2.8926 H   0  0  0  0  0  0  0  0  0  0  0  0
   -6.9444   -2.1304   -1.4207 H   0  0  0  0  0  0  0  0  0  0  0  0
   -6.9775   -2.1639   -3.2277 H   0  0  0  0  0  0  0  0  0  0  0  0
   -8.4385   -1.6240   -2.3022 H   0  0  0  0  0  0  0  0  0  0  0  0
   -2.7564   -1.1921    2.0415 H   0  0  0  0  0  0  0  0  0  0  0  0
   -1.9903    0.0418    3.0819 H   0  0  0  0  0  0  0  0  0  0  0  0
   -3.2605    0.4209    1.9400 H   0  0  0  0  0  0  0  0  0  0  0  0
   -0.9689   -2.1950    0.9452 H   0  0  0  0  0  0  0  0  0  0  0  0
    0.6292   -1.4116    0.9819 H   0  0  0  0  0  0  0  0  0  0  0  0
   -0.2846   -1.4737    2.4410 H   0  0  0  0  0  0  0  0  0  0  0  0
    4.0550   -2.6396   -2.5710 H   0  0  0  0  0  0  0  0  0  0  0  0
    3.9198   -3.9690   -0.8808 H   0  0  0  0  0  0  0  0  0  0  0  0
    5.2972   -0.5932   -1.8265 H   0  0  0  0  0  0  0  0  0  0  0  0
    4.1859   -1.2095    0.8726 H   0  0  0  0  0  0  0  0  0  0  0  0
    4.8369    3.3791    1.4680 H   0  0  0  0  0  0  0  0  0  0  0  0
    6.4581    3.1039    0.7371 H   0  0  0  0  0  0  0  0  0  0  0  0
    6.3105    4.0946    2.2233 H   0  0  0  0  0  0  0  0  0  0  0  0
    4.3011    2.3950    3.7705 H   0  0  0  0  0  0  0  0  0  0  0  0
    5.8401    3.0492    4.4503 H   0  0  0  0  0  0  0  0  0  0  0  0
    5.4726    1.2859    4.5661 H   0  0  0  0  0  0  0  0  0  0  0  0
    8.0347    2.4507    3.3972 H   0  0  0  0  0  0  0  0  0  0  0  0
    7.6660    0.6839    3.3769 H   0  0  0  0  0  0  0  0  0  0  0  0
    8.1134    1.5372    1.8568 H   0  0  0  0  0  0  0  0  0  0  0  0
    6.9655   -1.7686   -3.0781 H   0  0  0  0  0  0  0  0  0  0  0  0
    8.8959   -3.3023   -3.1029 H   0  0  0  0  0  0  0  0  0  0  0  0
    9.3462   -4.7763   -1.1623 H   0  0  0  0  0  0  0  0  0  0  0  0
    7.8496   -4.7192    0.8119 H   0  0  0  0  0  0  0  0  0  0  0  0
    5.9137   -3.1974    0.8607 H   0  0  0  0  0  0  0  0  0  0  0  0
  1  2  1  0
  2  3  1  0
  3  4  1  0
  3  5  1  0
  5  6  1  6
  5  7  1  0
  7  8  2  0
  7  9  1  0
  9 10  1  0
  9 11  1  0
 11 12  2  0
 12 13  1  0
 12 14  1  0
 14 15  1  0
 15 16  1  0
 16 17  1  1
 16 18  1  0
 18 19  1  0
 19 20  1  0
 20 21  2  0
 20 22  1  0
 22 23  2  0
 23 24  1  0
 24 25  2  0
 25 26  1  0
 26 27  2  0
 18 28  1  0
 28 29  1  0
 29 30  1  0
 30 31  1  0
 29 32  1  6
 32 33  1  0
 33 34  1  0
 33 35  2  0
 16 36  1  0
 36 37  1  0
 36 38  1  0
 14 39  1  0
 39 40  1  0
 40 41  2  0
 40 42  1  0
 42 43  1  0
 42 44  1  0
 44 45  1  0
 45 46  1  0
 46 47  2  0
 46 48  1  0
 48 49  1  0
 49 50  1  0
 49 51  1  0
 49 52  1  0
 44 53  1  0
 53 54  2  0
 54 55  1  0
 55 56  2  0
 56 57  1  0
 57 58  2  0
 29  1  1  0
 58 53  1  0
 31  1  1  0
 28  5  1  0
 36 11  1  0
 27 22  1  0
  1 59  1  6
  2 60  1  0
  2 61  1  0
  3 62  1  1
  4 63  1  0
  6 64  1  0
  6 65  1  0
  6 66  1  0
  9 67  1  1
 10 68  1  0
 13 69  1  0
 13 70  1  0
 13 71  1  0
 14 72  1  6
 15 73  1  0
 15 74  1  0
 17 75  1  0
 18 76  1  6
 23 77  1  0
 24 78  1  0
 25 79  1  0
 26 80  1  0
 27 81  1  0
 28 82  1  1
 30 83  1  0
 30 84  1  0
 34 85  1  0
 34 86  1  0
 34 87  1  0
 37 88  1  0
 37 89  1  0
 37 90  1  0
 38 91  1  0
 38 92  1  0
 38 93  1  0
 42 94  1  6
 43 95  1  0
 44 96  1  6
 45 97  1  0
 50 98  1  0
 50 99  1  0
 50100  1  0
 51101  1  0
 51102  1  0
 51103  1  0
 52104  1  0
 52105  1  0
 52106  1  0
 54107  1  0
 55108  1  0
 56109  1  0
 57110  1  0
 58111  1  0
M  END
$$$$
