
     RDKit          3D

 21 20  0  0  0  0  0  0  0  0999 V2000
   -1.4019   -2.2115    0.1771 O   0  0  0  0  0  0  0  0  0  0  0  0
   -1.0364   -0.9522   -0.3336 C   0  0  2  0  0  0  0  0  0  0  0  0
    0.4816   -0.7482   -0.1778 C   0  0  0  0  0  0  0  0  0  0  0  0
    0.8921    0.3727   -0.9261 O   0  0  0  0  0  0  0  0  0  0  0  0
    2.5714    0.5794   -0.7136 P   0  0  0  0  0  5  0  0  0  0  0  0
    3.0576    1.9674   -1.5506 O   0  0  0  0  0  0  0  0  0  0  0  0
    2.9319    0.7669    0.9307 O   0  0  0  0  0  0  0  0  0  0  0  0
    3.3139   -0.6182   -1.2648 O   0  0  0  0  0  0  0  0  0  0  0  0
   -1.8525    0.1714    0.3502 C   0  0  1  0  0  0  0  0  0  0  0  0
   -1.5751    1.4059   -0.2588 O   0  0  0  0  0  0  0  0  0  0  0  0
   -3.3288   -0.1080    0.2569 C   0  0  0  0  0  0  0  0  0  0  0  0
   -3.8864   -0.1514   -0.8286 O   0  0  0  0  0  0  0  0  0  0  0  0
   -1.1932   -2.2131    1.1483 H   0  0  0  0  0  0  0  0  0  0  0  0
   -1.2714   -0.9508   -1.4212 H   0  0  0  0  0  0  0  0  0  0  0  0
    0.9894   -1.6658   -0.5534 H   0  0  0  0  0  0  0  0  0  0  0  0
    0.7170   -0.6183    0.9034 H   0  0  0  0  0  0  0  0  0  0  0  0
    4.0307    2.0393   -1.3804 H   0  0  0  0  0  0  0  0  0  0  0  0
    3.9155    0.8774    0.9644 H   0  0  0  0  0  0  0  0  0  0  0  0
   -1.5691    0.2113    1.4282 H   0  0  0  0  0  0  0  0  0  0  0  0
   -1.8793    2.1117    0.3703 H   0  0  0  0  0  0  0  0  0  0  0  0
   -3.9070   -0.2656    1.1615 H   0  0  0  0  0  0  0  0  0  0  0  0
  1  2  1  0
  2  3  1  0
  3  4  1  0
  4  5  1  0
  5  6  1  0
  5  7  1  0
  5  8  2  0
  2  9  1  0
  9 10  1  0
  9 11  1  0
 11 12  2  0
  1 13  1  0
  2 14  1  6
  3 15  1  0
  3 16  1  0
  6 17  1  0
  7 18  1  0
  9 19  1  1
 10 20  1  0
 11 21  1  0
M  END
$$$$
