
     RDKit          3D

 43 46  0  0  0  0  0  0  0  0999 V2000
   -0.6366   -1.8985    2.0274 C   0  0  1  0  0  0  0  0  0  0  0  0
    0.9053   -2.3909    1.1433 S   0  0  0  0  0  0  0  0  0  0  0  0
    1.5969   -0.7118    0.8774 C   0  0  0  0  0  0  0  0  0  0  0  0
    1.7143    0.0972    2.1611 C   0  0  0  0  0  0  0  0  0  0  0  0
    2.9835    0.8975    2.3745 C   0  0  0  0  0  0  0  0  0  0  0  0
    2.7131    2.7051    2.2134 S   0  0  0  0  0  0  0  0  0  0  0  0
    1.9725    2.6303    0.5831 C   0  0  0  0  0  0  0  0  0  0  0  0
    0.6387    2.6116    0.3721 N   0  0  0  0  0  0  0  0  0  0  0  0
    0.3139    2.5050   -0.9149 N   0  0  0  0  0  0  0  0  0  0  0  0
    1.3884    2.4517   -1.7326 C   0  0  0  0  0  0  0  0  0  0  0  0
    1.2928    2.2452   -3.2051 C   0  0  0  0  0  0  0  0  0  0  0  0
    2.8296    2.5107   -0.8601 S   0  0  0  0  0  0  0  0  0  0  0  0
    0.6284    0.1839    2.9664 C   0  0  0  0  0  0  0  0  0  0  0  0
   -0.5158   -0.5701    2.5798 N   0  0  0  0  0  0  0  0  0  0  0  0
   -1.7852   -0.2117    1.9071 C   0  0  0  0  0  0  0  0  0  0  0  0
   -2.5037    0.8201    1.8528 O   0  0  0  0  0  0  0  0  0  0  0  0
   -1.8099   -1.5591    1.2493 C   0  0  1  0  0  0  0  0  0  0  0  0
   -1.5735   -1.4496   -0.1927 N   0  0  0  0  0  0  0  0  0  0  0  0
   -1.6571   -2.5845   -1.0637 C   0  0  0  0  0  0  0  0  0  0  0  0
   -2.0258   -3.7043   -0.6167 O   0  0  0  0  0  0  0  0  0  0  0  0
   -1.2998   -2.4444   -2.5113 C   0  0  0  0  0  0  0  0  0  0  0  0
   -2.2456   -1.5572   -3.1775 N   0  0  0  0  0  0  0  0  0  0  0  0
   -2.1163   -0.2421   -3.4127 C   0  0  0  0  0  0  0  0  0  0  0  0
   -3.2380    0.2232   -3.9930 N   0  0  0  0  0  0  0  0  0  0  0  0
   -4.0420   -0.8280   -4.0951 N   0  0  0  0  0  0  0  0  0  0  0  0
   -3.4481   -1.9028   -3.5983 N   0  0  0  0  0  0  0  0  0  0  0  0
    0.5330    1.0037    4.1969 C   0  0  0  0  0  0  0  0  0  0  0  0
    1.6652    1.4508    4.8702 O   0  0  0  0  0  0  0  0  0  0  0  0
   -0.6039    1.2656    4.6732 O   0  0  0  0  0  0  0  0  0  0  0  0
   -0.8722   -2.6298    2.8322 H   0  0  0  0  0  0  0  0  0  0  0  0
    0.9424   -0.1704    0.1652 H   0  0  0  0  0  0  0  0  0  0  0  0
    2.5835   -0.8302    0.3841 H   0  0  0  0  0  0  0  0  0  0  0  0
    3.7588    0.6127    1.6329 H   0  0  0  0  0  0  0  0  0  0  0  0
    3.4211    0.6643    3.3659 H   0  0  0  0  0  0  0  0  0  0  0  0
    0.3322    2.6526   -3.5844 H   0  0  0  0  0  0  0  0  0  0  0  0
    1.3433    1.1595   -3.4289 H   0  0  0  0  0  0  0  0  0  0  0  0
    2.1307    2.7645   -3.7152 H   0  0  0  0  0  0  0  0  0  0  0  0
   -2.7271   -2.1341    1.5036 H   0  0  0  0  0  0  0  0  0  0  0  0
   -1.3384   -0.5192   -0.6083 H   0  0  0  0  0  0  0  0  0  0  0  0
   -0.2700   -2.0344   -2.5953 H   0  0  0  0  0  0  0  0  0  0  0  0
   -1.3129   -3.4384   -3.0089 H   0  0  0  0  0  0  0  0  0  0  0  0
   -1.2504    0.3575   -3.1648 H   0  0  0  0  0  0  0  0  0  0  0  0
    1.5846    1.9989    5.7183 H   0  0  0  0  0  0  0  0  0  0  0  0
  1  2  1  0
  2  3  1  0
  3  4  1  0
  4  5  1  0
  5  6  1  0
  6  7  1  0
  7  8  2  0
  8  9  1  0
  9 10  2  0
 10 11  1  0
 10 12  1  0
  4 13  2  0
 13 14  1  0
 14 15  1  0
 15 16  2  0
 15 17  1  0
 17 18  1  0
 18 19  1  0
 19 20  2  0
 19 21  1  0
 21 22  1  0
 22 23  1  0
 23 24  2  0
 24 25  1  0
 25 26  2  0
 13 27  1  0
 27 28  1  0
 27 29  2  0
 14  1  1  0
 26 22  1  0
 17  1  1  0
 12  7  1  0
  1 30  1  1
  3 31  1  0
  3 32  1  0
  5 33  1  0
  5 34  1  0
 11 35  1  0
 11 36  1  0
 11 37  1  0
 17 38  1  6
 18 39  1  0
 21 40  1  0
 21 41  1  0
 23 42  1  0
 28 43  1  0
M  END
$$$$
