
     RDKit          3D

 12 11  0  0  0  0  0  0  0  0999 V2000
   -1.1287   -0.4649   -0.7463 C   0  0  0  0  0  0  0  0  0  0  0  0
   -0.3867    0.1943    0.4203 C   0  0  0  0  0  0  0  0  0  0  0  0
   -0.7270    1.5537    0.5310 O   0  0  0  0  0  0  0  0  0  0  0  0
    1.1004    0.0279    0.2784 C   0  0  0  0  0  0  0  0  0  0  0  0
    1.7921   -0.7918    1.1648 O   0  0  0  0  0  0  0  0  0  0  0  0
    1.7216    0.6140   -0.6490 O   0  0  0  0  0  0  0  0  0  0  0  0
   -2.2242   -0.3421   -0.6114 H   0  0  0  0  0  0  0  0  0  0  0  0
   -0.8972   -1.5511   -0.7812 H   0  0  0  0  0  0  0  0  0  0  0  0
   -0.8339   -0.0024   -1.7127 H   0  0  0  0  0  0  0  0  0  0  0  0
   -0.7077   -0.3122    1.3561 H   0  0  0  0  0  0  0  0  0  0  0  0
   -0.5018    1.9953   -0.3298 H   0  0  0  0  0  0  0  0  0  0  0  0
    2.7933   -0.9206    1.0799 H   0  0  0  0  0  0  0  0  0  0  0  0
  1  2  1  0
  2  3  1  0
  2  4  1  0
  4  5  1  0
  4  6  2  0
  1  7  1  0
  1  8  1  0
  1  9  1  0
  2 10  1  0
  3 11  1  0
  5 12  1  0
M  END
$$$$
