
     RDKit          3D

 23 24  0  0  0  0  0  0  0  0999 V2000
    3.5012    1.4411    0.4735 N   0  0  0  0  0  0  0  0  0  0  0  0
    3.0821   -0.2358    0.5537 S   0  0  0  0  0  6  0  0  0  0  0  0
    3.4410   -0.7615    1.9151 O   0  0  0  0  0  0  0  0  0  0  0  0
    3.8608   -0.9799   -0.4949 O   0  0  0  0  0  0  0  0  0  0  0  0
    1.3506   -0.4653    0.2775 C   0  0  0  0  0  0  0  0  0  0  0  0
    0.7859   -1.7557    0.2263 C   0  0  0  0  0  0  0  0  0  0  0  0
    1.7603   -3.2068    0.4385 Cl  0  0  0  0  0  0  0  0  0  0  0  0
   -0.5881   -1.9085    0.0068 C   0  0  0  0  0  0  0  0  0  0  0  0
   -1.4185   -0.7908   -0.1613 C   0  0  0  0  0  0  0  0  0  0  0  0
   -2.8282   -0.9840   -0.3856 N   0  0  0  0  0  0  0  0  0  0  0  0
   -3.7977    0.0619   -0.5732 C   0  0  0  0  0  0  0  0  0  0  0  0
   -3.4870    1.3208   -0.5565 N   0  0  0  0  0  0  0  0  0  0  0  0
   -1.8774    1.8866   -0.3078 S   0  0  0  0  0  6  0  0  0  0  0  0
   -1.8292    2.7389    0.9286 O   0  0  0  0  0  0  0  0  0  0  0  0
   -1.4310    2.6761   -1.5056 O   0  0  0  0  0  0  0  0  0  0  0  0
   -0.8538    0.4900   -0.1044 C   0  0  0  0  0  0  0  0  0  0  0  0
    0.5188    0.6521    0.1147 C   0  0  0  0  0  0  0  0  0  0  0  0
    3.4000    1.7349   -0.5240 H   0  0  0  0  0  0  0  0  0  0  0  0
    4.5174    1.5133    0.7046 H   0  0  0  0  0  0  0  0  0  0  0  0
   -1.0124   -2.9043   -0.0317 H   0  0  0  0  0  0  0  0  0  0  0  0
   -3.1932   -1.9627   -0.4180 H   0  0  0  0  0  0  0  0  0  0  0  0
   -4.8317   -0.2123   -0.7353 H   0  0  0  0  0  0  0  0  0  0  0  0
    0.9301    1.6517    0.1590 H   0  0  0  0  0  0  0  0  0  0  0  0
  1  2  1  0
  2  3  2  0
  2  4  2  0
  2  5  1  0
  5  6  2  0
  6  7  1  0
  6  8  1  0
  8  9  2  0
  9 10  1  0
 10 11  1  0
 11 12  2  0
 12 13  1  0
 13 14  2  0
 13 15  2  0
 13 16  1  0
 16 17  2  0
 17  5  1  0
 16  9  1  0
  1 18  1  0
  1 19  1  0
  8 20  1  0
 10 21  1  0
 11 22  1  0
 17 23  1  0
M  END
$$$$
