
     RDKit          3D

 31 32  0  0  0  0  0  0  0  0999 V2000
   -3.1237    2.4249   -0.4304 O   0  0  0  0  0  0  0  0  0  0  0  0
   -2.7207    1.5068    0.5495 C   0  0  0  0  0  0  0  0  0  0  0  0
   -2.3996    0.1497   -0.0895 C   0  0  1  0  0  0  0  0  0  0  0  0
   -1.3583    0.2959   -1.0264 O   0  0  0  0  0  0  0  0  0  0  0  0
   -0.6082   -0.9028   -1.0149 C   0  0  2  0  0  0  0  0  0  0  0  0
   -1.0608   -1.7790    0.1532 C   0  0  0  0  0  0  0  0  0  0  0  0
   -1.9613   -0.8766    0.9476 C   0  0  2  0  0  0  0  0  0  0  0  0
   -3.0547   -1.5911    1.4612 O   0  0  0  0  0  0  0  0  0  0  0  0
    0.8362   -0.6019   -0.9124 N   0  0  0  0  0  0  0  0  0  0  0  0
    1.2617    0.3794   -0.0583 C   0  0  0  0  0  0  0  0  0  0  0  0
    2.6252    0.6736    0.0835 C   0  0  0  0  0  0  0  0  0  0  0  0
    3.5372   -0.0901   -0.6587 C   0  0  0  0  0  0  0  0  0  0  0  0
    4.7766    0.1244   -0.5654 O   0  0  0  0  0  0  0  0  0  0  0  0
    3.0882   -1.0735   -1.4806 N   0  0  0  0  0  0  0  0  0  0  0  0
    1.7606   -1.3405   -1.6072 C   0  0  0  0  0  0  0  0  0  0  0  0
    1.3944   -2.2789   -2.3674 O   0  0  0  0  0  0  0  0  0  0  0  0
    3.1064    1.7582    1.0217 C   0  0  0  0  0  0  0  0  0  0  0  0
    3.8796    1.1932    2.0195 F   0  0  0  0  0  0  0  0  0  0  0  0
    3.8715    2.6726    0.3203 F   0  0  0  0  0  0  0  0  0  0  0  0
    2.0515    2.4336    1.6114 F   0  0  0  0  0  0  0  0  0  0  0  0
   -4.0563    2.1880   -0.6753 H   0  0  0  0  0  0  0  0  0  0  0  0
   -1.8158    1.9070    1.0548 H   0  0  0  0  0  0  0  0  0  0  0  0
   -3.5186    1.3925    1.3182 H   0  0  0  0  0  0  0  0  0  0  0  0
   -3.3045   -0.2211   -0.6238 H   0  0  0  0  0  0  0  0  0  0  0  0
   -0.8290   -1.4317   -1.9688 H   0  0  0  0  0  0  0  0  0  0  0  0
   -1.6256   -2.6567   -0.2347 H   0  0  0  0  0  0  0  0  0  0  0  0
   -0.2110   -2.1441    0.7717 H   0  0  0  0  0  0  0  0  0  0  0  0
   -1.3716   -0.4038    1.7690 H   0  0  0  0  0  0  0  0  0  0  0  0
   -3.4851   -1.0014    2.1334 H   0  0  0  0  0  0  0  0  0  0  0  0
    0.5363    0.9357    0.5213 H   0  0  0  0  0  0  0  0  0  0  0  0
    3.7790   -1.6422   -2.0225 H   0  0  0  0  0  0  0  0  0  0  0  0
  1  2  1  0
  2  3  1  0
  3  4  1  0
  4  5  1  0
  5  6  1  0
  6  7  1  0
  7  8  1  0
  5  9  1  0
  9 10  1  0
 10 11  2  0
 11 12  1  0
 12 13  2  0
 12 14  1  0
 14 15  1  0
 15 16  2  0
 11 17  1  0
 17 18  1  0
 17 19  1  0
 17 20  1  0
  7  3  1  0
 15  9  1  0
  1 21  1  0
  2 22  1  0
  2 23  1  0
  3 24  1  6
  5 25  1  6
  6 26  1  0
  6 27  1  0
  7 28  1  1
  8 29  1  0
 10 30  1  0
 14 31  1  0
M  END
$$$$
