
     RDKit          3D

 39 42  0  0  0  0  0  0  0  0999 V2000
    2.7838    3.3302    0.1742 N   0  0  0  0  0  0  0  0  0  0  0  0
    1.7864    2.4691    0.7179 C   0  0  0  0  0  0  0  0  0  0  0  0
    1.1603    1.5645   -0.0804 N   0  0  0  0  0  0  0  0  0  0  0  0
    0.2046    0.7324    0.4135 C   0  0  0  0  0  0  0  0  0  0  0  0
   -0.1272    0.7937    1.7701 C   0  0  0  0  0  0  0  0  0  0  0  0
    0.5221    1.7297    2.5734 C   0  0  0  0  0  0  0  0  0  0  0  0
    1.4634    2.5481    2.0361 N   0  0  0  0  0  0  0  0  0  0  0  0
   -0.4336   -0.2536   -0.4773 C   0  0  0  0  0  0  0  0  0  0  0  0
    0.2113   -1.1196   -1.3500 C   0  0  0  0  0  0  0  0  0  0  0  0
   -0.7088   -1.7658   -2.0970 N   0  0  0  0  0  0  0  0  0  0  0  0
   -1.8940   -1.2864   -1.6671 C   0  0  0  0  0  0  0  0  0  0  0  0
   -1.7616   -0.3631   -0.6935 N   0  0  0  0  0  0  0  0  0  0  0  0
   -2.8572    0.4092   -0.1042 C   0  0  0  0  0  0  0  0  0  0  0  0
   -3.5969   -0.4393    0.9392 C   0  0  0  0  0  0  0  0  0  0  0  0
   -4.8744    0.2072    1.4581 C   0  0  0  0  0  0  0  0  0  0  0  0
   -3.6561    0.1128    2.3577 C   0  0  0  0  0  0  0  0  0  0  0  0
    1.6671   -1.3464   -1.4935 C   0  0  0  0  0  0  0  0  0  0  0  0
    2.5258   -1.3069   -0.3796 C   0  0  0  0  0  0  0  0  0  0  0  0
    3.8970   -1.5312   -0.5363 C   0  0  0  0  0  0  0  0  0  0  0  0
    4.4220   -1.8097   -1.8007 C   0  0  0  0  0  0  0  0  0  0  0  0
    5.7516   -2.0284   -1.9500 F   0  0  0  0  0  0  0  0  0  0  0  0
    3.5744   -1.8718   -2.9098 C   0  0  0  0  0  0  0  0  0  0  0  0
    2.2026   -1.6477   -2.7576 C   0  0  0  0  0  0  0  0  0  0  0  0
    3.0393    3.2704   -0.8365 H   0  0  0  0  0  0  0  0  0  0  0  0
    3.2696    4.0265    0.7819 H   0  0  0  0  0  0  0  0  0  0  0  0
   -0.8507    0.1153    2.2005 H   0  0  0  0  0  0  0  0  0  0  0  0
    0.2851    1.7994    3.6266 H   0  0  0  0  0  0  0  0  0  0  0  0
   -2.8455   -1.5927   -2.0826 H   0  0  0  0  0  0  0  0  0  0  0  0
   -2.4748    1.3594    0.3260 H   0  0  0  0  0  0  0  0  0  0  0  0
   -3.5705    0.6882   -0.9103 H   0  0  0  0  0  0  0  0  0  0  0  0
   -3.6758   -1.5411    0.8182 H   0  0  0  0  0  0  0  0  0  0  0  0
   -5.6821   -0.5074    1.7234 H   0  0  0  0  0  0  0  0  0  0  0  0
   -5.0859    1.2387    1.1021 H   0  0  0  0  0  0  0  0  0  0  0  0
   -3.1610    1.0909    2.5369 H   0  0  0  0  0  0  0  0  0  0  0  0
   -3.7405   -0.6620    3.1485 H   0  0  0  0  0  0  0  0  0  0  0  0
    2.1385   -1.1262    0.6142 H   0  0  0  0  0  0  0  0  0  0  0  0
    4.5508   -1.4967    0.3257 H   0  0  0  0  0  0  0  0  0  0  0  0
    3.9793   -2.0938   -3.8888 H   0  0  0  0  0  0  0  0  0  0  0  0
    1.5612   -1.6960   -3.6291 H   0  0  0  0  0  0  0  0  0  0  0  0
  1  2  1  0
  2  3  2  0
  3  4  1  0
  4  5  2  0
  5  6  1  0
  6  7  2  0
  4  8  1  0
  8  9  2  0
  9 10  1  0
 10 11  2  0
 11 12  1  0
 12 13  1  0
 13 14  1  0
 14 15  1  0
 15 16  1  0
  9 17  1  0
 17 18  2  0
 18 19  1  0
 19 20  2  0
 20 21  1  0
 20 22  1  0
 22 23  2  0
  7  2  1  0
 12  8  1  0
 16 14  1  0
 23 17  1  0
  1 24  1  0
  1 25  1  0
  5 26  1  0
  6 27  1  0
 11 28  1  0
 13 29  1  0
 13 30  1  0
 14 31  1  0
 15 32  1  0
 15 33  1  0
 16 34  1  0
 16 35  1  0
 18 36  1  0
 19 37  1  0
 22 38  1  0
 23 39  1  0
M  END
$$$$
