
     RDKit          3D

 33 36  0  0  0  0  0  0  0  0999 V2000
    6.3787    0.0228   -1.1209 O   0  0  0  0  0  0  0  0  0  0  0  0
    5.0611   -0.0593   -0.6763 C   0  0  0  0  0  0  0  0  0  0  0  0
    4.1454    0.9610   -0.9626 C   0  0  0  0  0  0  0  0  0  0  0  0
    2.8253    0.8679   -0.5118 C   0  0  0  0  0  0  0  0  0  0  0  0
    2.4027   -0.2489    0.2331 C   0  0  0  0  0  0  0  0  0  0  0  0
    3.3309   -1.2680    0.5166 C   0  0  0  0  0  0  0  0  0  0  0  0
    4.6499   -1.1717    0.0633 C   0  0  0  0  0  0  0  0  0  0  0  0
    1.0005   -0.3496    0.7138 C   0  0  0  0  0  0  0  0  0  0  0  0
   -0.0724    0.0264   -0.1117 C   0  0  0  0  0  0  0  0  0  0  0  0
   -1.4071   -0.0651    0.3447 C   0  0  0  0  0  0  0  0  0  0  0  0
   -1.6154   -0.5545    1.6597 C   0  0  0  0  0  0  0  0  0  0  0  0
   -2.9055   -0.6777    2.1762 C   0  0  0  0  0  0  0  0  0  0  0  0
   -4.0094   -0.3230    1.4085 C   0  0  0  0  0  0  0  0  0  0  0  0
   -3.8411    0.1650    0.1072 C   0  0  0  0  0  0  0  0  0  0  0  0
   -2.5383    0.3031   -0.4449 C   0  0  0  0  0  0  0  0  0  0  0  0
   -2.4387    0.8079   -1.7631 C   0  0  0  0  0  0  0  0  0  0  0  0
   -3.5555    1.1396   -2.4626 N   0  0  0  0  0  0  0  0  0  0  0  0
   -4.8000    1.0066   -1.9414 C   0  0  0  0  0  0  0  0  0  0  0  0
   -4.9664    0.5185   -0.6492 C   0  0  0  0  0  0  0  0  0  0  0  0
   -0.5594   -0.9119    2.4362 N   0  0  0  0  0  0  0  0  0  0  0  0
    0.7216   -0.8234    2.0018 C   0  0  0  0  0  0  0  0  0  0  0  0
    6.7074    0.8161   -1.6590 H   0  0  0  0  0  0  0  0  0  0  0  0
    4.4562    1.8282   -1.5313 H   0  0  0  0  0  0  0  0  0  0  0  0
    2.1400    1.6773   -0.7306 H   0  0  0  0  0  0  0  0  0  0  0  0
    3.0323   -2.1471    1.0738 H   0  0  0  0  0  0  0  0  0  0  0  0
    5.3529   -1.9648    0.2846 H   0  0  0  0  0  0  0  0  0  0  0  0
    0.1607    0.3638   -1.1077 H   0  0  0  0  0  0  0  0  0  0  0  0
   -3.0556   -1.0527    3.1814 H   0  0  0  0  0  0  0  0  0  0  0  0
   -5.0002   -0.4299    1.8347 H   0  0  0  0  0  0  0  0  0  0  0  0
   -1.4932    0.9506   -2.2576 H   0  0  0  0  0  0  0  0  0  0  0  0
   -5.6629    1.2824   -2.5328 H   0  0  0  0  0  0  0  0  0  0  0  0
   -5.9665    0.4186   -0.2439 H   0  0  0  0  0  0  0  0  0  0  0  0
    1.5222   -1.1083    2.6719 H   0  0  0  0  0  0  0  0  0  0  0  0
  1  2  1  0
  2  3  2  0
  3  4  1  0
  4  5  2  0
  5  6  1  0
  6  7  2  0
  5  8  1  0
  8  9  2  0
  9 10  1  0
 10 11  2  0
 11 12  1  0
 12 13  2  0
 13 14  1  0
 14 15  2  0
 15 16  1  0
 16 17  2  0
 17 18  1  0
 18 19  2  0
 11 20  1  0
 20 21  2  0
  7  2  1  0
 21  8  1  0
 15 10  1  0
 19 14  1  0
  1 22  1  0
  3 23  1  0
  4 24  1  0
  6 25  1  0
  7 26  1  0
  9 27  1  0
 12 28  1  0
 13 29  1  0
 16 30  1  0
 18 31  1  0
 19 32  1  0
 21 33  1  0
M  END
$$$$
