
     RDKit          3D

 47 47  0  0  0  0  0  0  0  0999 V2000
    7.1745    2.0653   -0.1351 C   0  0  0  0  0  0  0  0  0  0  0  0
    6.5518    0.8461   -0.6657 N   0  0  0  0  0  0  0  0  0  0  0  0
    7.3684   -0.0777   -1.4630 C   0  0  0  0  0  0  0  0  0  0  0  0
    5.1520    0.5591   -0.4075 C   0  0  0  0  0  0  0  0  0  0  0  0
    4.2591    1.5842   -0.0354 C   0  0  0  0  0  0  0  0  0  0  0  0
    2.9122    1.3063    0.2121 C   0  0  0  0  0  0  0  0  0  0  0  0
    2.4155   -0.0007    0.0875 C   0  0  0  0  0  0  0  0  0  0  0  0
    3.3020   -1.0293   -0.2701 C   0  0  0  0  0  0  0  0  0  0  0  0
    4.6498   -0.7533   -0.5172 C   0  0  0  0  0  0  0  0  0  0  0  0
    0.9840   -0.2774    0.3584 C   0  0  0  0  0  0  0  0  0  0  0  0
    0.3421    0.4934    1.1238 O   0  0  0  0  0  0  0  0  0  0  0  0
    0.3140   -1.3969   -0.2462 N   0  0  0  0  0  0  0  0  0  0  0  0
   -1.0678   -1.7483    0.0756 C   0  0  0  0  0  0  0  0  0  0  0  0
   -2.0401   -0.7995   -0.6387 C   0  0  0  0  0  0  0  0  0  0  0  0
   -3.5090   -1.2228   -0.4800 C   0  0  0  0  0  0  0  0  0  0  0  0
   -4.0454   -0.9644    0.9386 C   0  0  0  0  0  0  0  0  0  0  0  0
   -5.5187   -1.3818    1.1024 C   0  0  0  0  0  0  0  0  0  0  0  0
   -6.5188   -0.4896    0.3489 C   0  0  0  0  0  0  0  0  0  0  0  0
   -6.4992    0.9254    0.8492 C   0  0  0  0  0  0  0  0  0  0  0  0
   -7.0981    1.2163    1.9194 O   0  0  0  0  0  0  0  0  0  0  0  0
   -5.7792    1.9357    0.1376 N   0  0  0  0  0  0  0  0  0  0  0  0
   -5.7350    3.2069    0.6030 O   0  0  0  0  0  0  0  0  0  0  0  0
    6.9391    2.1702    0.9454 H   0  0  0  0  0  0  0  0  0  0  0  0
    6.7999    2.9518   -0.6883 H   0  0  0  0  0  0  0  0  0  0  0  0
    8.2803    2.0366   -0.2338 H   0  0  0  0  0  0  0  0  0  0  0  0
    7.5772   -0.9977   -0.8780 H   0  0  0  0  0  0  0  0  0  0  0  0
    8.3393    0.3782   -1.7508 H   0  0  0  0  0  0  0  0  0  0  0  0
    6.8337   -0.3421   -2.3999 H   0  0  0  0  0  0  0  0  0  0  0  0
    4.5914    2.6089    0.0561 H   0  0  0  0  0  0  0  0  0  0  0  0
    2.2538    2.1208    0.4886 H   0  0  0  0  0  0  0  0  0  0  0  0
    2.9681   -2.0561   -0.3334 H   0  0  0  0  0  0  0  0  0  0  0  0
    5.2976   -1.5787   -0.7774 H   0  0  0  0  0  0  0  0  0  0  0  0
    0.8092   -1.9827   -0.9544 H   0  0  0  0  0  0  0  0  0  0  0  0
   -1.2105   -1.7125    1.1761 H   0  0  0  0  0  0  0  0  0  0  0  0
   -1.2606   -2.7907   -0.2601 H   0  0  0  0  0  0  0  0  0  0  0  0
   -1.9074    0.2392   -0.2668 H   0  0  0  0  0  0  0  0  0  0  0  0
   -1.7953   -0.7993   -1.7235 H   0  0  0  0  0  0  0  0  0  0  0  0
   -4.1029   -0.6344   -1.2095 H   0  0  0  0  0  0  0  0  0  0  0  0
   -3.6231   -2.2977   -0.7408 H   0  0  0  0  0  0  0  0  0  0  0  0
   -3.9166    0.1058    1.2071 H   0  0  0  0  0  0  0  0  0  0  0  0
   -3.4525   -1.5595    1.6642 H   0  0  0  0  0  0  0  0  0  0  0  0
   -5.6424   -2.4317    0.7581 H   0  0  0  0  0  0  0  0  0  0  0  0
   -5.7730   -1.3652    2.1851 H   0  0  0  0  0  0  0  0  0  0  0  0
   -6.3259   -0.5160   -0.7433 H   0  0  0  0  0  0  0  0  0  0  0  0
   -7.5400   -0.9021    0.4985 H   0  0  0  0  0  0  0  0  0  0  0  0
   -5.2559    1.6938   -0.7334 H   0  0  0  0  0  0  0  0  0  0  0  0
   -6.4978    3.6641    0.1653 H   0  0  0  0  0  0  0  0  0  0  0  0
  1  2  1  0
  2  3  1  0
  2  4  1  0
  4  5  2  0
  5  6  1  0
  6  7  2  0
  7  8  1  0
  8  9  2  0
  7 10  1  0
 10 11  2  0
 10 12  1  0
 12 13  1  0
 13 14  1  0
 14 15  1  0
 15 16  1  0
 16 17  1  0
 17 18  1  0
 18 19  1  0
 19 20  2  0
 19 21  1  0
 21 22  1  0
  9  4  1  0
  1 23  1  0
  1 24  1  0
  1 25  1  0
  3 26  1  0
  3 27  1  0
  3 28  1  0
  5 29  1  0
  6 30  1  0
  8 31  1  0
  9 32  1  0
 12 33  1  0
 13 34  1  0
 13 35  1  0
 14 36  1  0
 14 37  1  0
 15 38  1  0
 15 39  1  0
 16 40  1  0
 16 41  1  0
 17 42  1  0
 17 43  1  0
 18 44  1  0
 18 45  1  0
 21 46  1  0
 22 47  1  0
M  END
$$$$
