
     RDKit          3D

 85 68  0  0  0  0  0  0  0  0999 V2000
    0.0006    0.4041    0.0000 O   0  0  0  0  0  0  0  0  0  0  0  0
   -0.0014    0.4041    0.0000 O   0  0  0  0  0  0  0  0  0  0  0  0
    0.0009    0.4041    0.0000 O   0  0  0  0  0  0  0  0  0  0  0  0
    0.0139    0.4039    0.0000 O   0  0  0  0  0  0  0  0  0  0  0  0
   -0.0055    0.4041    0.0000 O   0  0  0  0  0  0  0  0  0  0  0  0
   -0.0025    0.4041    0.0000 O   0  0  0  0  0  0  0  0  0  0  0  0
    0.0004    0.4041    0.0000 O   0  0  0  0  0  0  0  0  0  0  0  0
   -0.0104    0.4040    0.0000 O   0  0  0  0  0  0  0  0  0  0  0  0
   -0.0003    0.4041    0.0000 O   0  0  0  0  0  0  0  0  0  0  0  0
    0.0092    0.4040    0.0000 O   0  0  0  0  0  0  0  0  0  0  0  0
    0.0000    0.0000    0.0000 Fe  0  0  0  0  0 15  0  0  0  0  0  0
    0.0000    0.0000    0.0000 Fe  0  0  0  0  0 15  0  0  0  0  0  0
    0.0000    0.0000    0.0000 Fe  0  0  0  0  0 15  0  0  0  0  0  0
    0.0000    0.0000    0.0000 Fe  0  0  0  0  0 15  0  0  0  0  0  0
   -3.1580   -0.8212   -0.3325 O   0  0  0  0  0  1  0  0  0  0  0  0
   -2.1068   -0.9265    0.5697 C   0  0  0  0  0  0  0  0  0  0  0  0
   -2.3484   -0.9820    1.8042 O   0  0  0  0  0  0  0  0  0  0  0  0
   -0.6893   -0.9345    0.0757 C   0  0  0  0  0  0  0  0  0  0  0  0
   -0.0517    0.4768    0.0920 C   0  0  0  0  0  0  0  0  0  0  0  0
   -0.0502    0.9644    1.4060 O   0  0  0  0  0  1  0  0  0  0  0  0
    1.4041    0.4334   -0.4285 C   0  0  0  0  0  0  0  0  0  0  0  0
    2.3150   -0.3671    0.4561 C   0  0  0  0  0  0  0  0  0  0  0  0
    2.8336    0.1974    1.6147 O   0  0  0  0  0  1  0  0  0  0  0  0
    2.5955   -1.5596    0.1648 O   0  0  0  0  0  0  0  0  0  0  0  0
   -0.8447    1.4162   -0.7886 C   0  0  0  0  0  0  0  0  0  0  0  0
   -1.0406    1.1145   -2.1317 O   0  0  0  0  0  1  0  0  0  0  0  0
   -1.3243    2.4838   -0.3215 O   0  0  0  0  0  0  0  0  0  0  0  0
   -1.4891   -2.3347    0.7850 O   0  0  0  0  0  1  0  0  0  0  0  0
   -1.4599   -1.4227   -0.2627 C   0  0  0  0  0  0  0  0  0  0  0  0
   -1.5750   -1.8339   -1.4473 O   0  0  0  0  0  0  0  0  0  0  0  0
   -1.3190    0.0456    0.0166 C   0  0  0  0  0  0  0  0  0  0  0  0
    0.0607    0.4422    0.6038 C   0  0  0  0  0  0  0  0  0  0  0  0
    0.3507   -0.3669    1.7107 O   0  0  0  0  0  1  0  0  0  0  0  0
    1.2074    0.3331   -0.4351 C   0  0  0  0  0  0  0  0  0  0  0  0
    1.5518   -1.0771   -0.8171 C   0  0  0  0  0  0  0  0  0  0  0  0
    1.3117   -1.5258   -2.1097 O   0  0  0  0  0  1  0  0  0  0  0  0
    2.0801   -1.8534    0.0220 O   0  0  0  0  0  0  0  0  0  0  0  0
   -0.0203    1.8797    1.0636 C   0  0  0  0  0  0  0  0  0  0  0  0
   -0.3039    2.8889    0.1498 O   0  0  0  0  0  1  0  0  0  0  0  0
    0.1681    2.1807    2.2728 O   0  0  0  0  0  0  0  0  0  0  0  0
    2.4001    1.6367    0.6357 O   0  0  0  0  0  1  0  0  0  0  0  0
    1.9407    0.3805    0.2604 C   0  0  0  0  0  0  0  0  0  0  0  0
    2.3491   -0.6401    0.8744 O   0  0  0  0  0  0  0  0  0  0  0  0
    0.9478    0.2451   -0.8586 C   0  0  0  0  0  0  0  0  0  0  0  0
   -0.5245    0.4088   -0.4039 C   0  0  0  0  0  0  0  0  0  0  0  0
   -1.3436    0.2795   -1.5321 O   0  0  0  0  0  1  0  0  0  0  0  0
   -0.9495   -0.6658    0.6304 C   0  0  0  0  0  0  0  0  0  0  0  0
   -0.8827   -2.0603    0.0792 C   0  0  0  0  0  0  0  0  0  0  0  0
    0.2259   -2.8581    0.3326 O   0  0  0  0  0  1  0  0  0  0  0  0
   -1.8201   -2.5058   -0.6339 O   0  0  0  0  0  0  0  0  0  0  0  0
   -0.7329    1.7939    0.1674 C   0  0  0  0  0  0  0  0  0  0  0  0
   -0.6053    2.0261    1.5329 O   0  0  0  0  0  1  0  0  0  0  0  0
   -0.9625    2.7663   -0.6003 O   0  0  0  0  0  0  0  0  0  0  0  0
    0.7827   -0.2032    0.0000 H   0  0  0  0  0  0  0  0  0  0  0  0
   -0.7833   -0.2009    0.0000 H   0  0  0  0  0  0  0  0  0  0  0  0
   -0.7823   -0.2048    0.0000 H   0  0  0  0  0  0  0  0  0  0  0  0
    0.7838   -0.1993    0.0000 H   0  0  0  0  0  0  0  0  0  0  0  0
   -0.7835   -0.2002    0.0000 H   0  0  0  0  0  0  0  0  0  0  0  0
    0.7826   -0.2039    0.0000 H   0  0  0  0  0  0  0  0  0  0  0  0
    0.7756   -0.2288    0.0000 H   0  0  0  0  0  0  0  0  0  0  0  0
   -0.7895   -0.1751    0.0000 H   0  0  0  0  0  0  0  0  0  0  0  0
   -0.7802   -0.2127    0.0000 H   0  0  0  0  0  0  0  0  0  0  0  0
    0.7857   -0.1914    0.0000 H   0  0  0  0  0  0  0  0  0  0  0  0
    0.7843   -0.1971    0.0000 H   0  0  0  0  0  0  0  0  0  0  0  0
   -0.7817   -0.2070    0.0000 H   0  0  0  0  0  0  0  0  0  0  0  0
   -0.7832   -0.2013    0.0000 H   0  0  0  0  0  0  0  0  0  0  0  0
    0.7828   -0.2028    0.0000 H   0  0  0  0  0  0  0  0  0  0  0  0
   -0.7776   -0.2221    0.0000 H   0  0  0  0  0  0  0  0  0  0  0  0
    0.7880   -0.1819    0.0000 H   0  0  0  0  0  0  0  0  0  0  0  0
    0.7832   -0.2016    0.0000 H   0  0  0  0  0  0  0  0  0  0  0  0
   -0.7829   -0.2026    0.0000 H   0  0  0  0  0  0  0  0  0  0  0  0
   -0.7874   -0.1842    0.0000 H   0  0  0  0  0  0  0  0  0  0  0  0
    0.7782   -0.2198    0.0000 H   0  0  0  0  0  0  0  0  0  0  0  0
   -0.1030   -1.6239    0.7206 H   0  0  0  0  0  0  0  0  0  0  0  0
   -0.6681   -1.3517   -0.9549 H   0  0  0  0  0  0  0  0  0  0  0  0
    1.8075    1.4684   -0.4882 H   0  0  0  0  0  0  0  0  0  0  0  0
    1.4294    0.0117   -1.4580 H   0  0  0  0  0  0  0  0  0  0  0  0
   -2.1194    0.3216    0.7381 H   0  0  0  0  0  0  0  0  0  0  0  0
   -1.5114    0.6201   -0.9169 H   0  0  0  0  0  0  0  0  0  0  0  0
    2.1278    0.8010   -0.0204 H   0  0  0  0  0  0  0  0  0  0  0  0
    0.9398    0.9014   -1.3530 H   0  0  0  0  0  0  0  0  0  0  0  0
    1.1813    1.0132   -1.6283 H   0  0  0  0  0  0  0  0  0  0  0  0
    1.0851   -0.7419   -1.3513 H   0  0  0  0  0  0  0  0  0  0  0  0
   -0.3135   -0.6081    1.5398 H   0  0  0  0  0  0  0  0  0  0  0  0
   -1.9953   -0.4698    0.9557 H   0  0  0  0  0  0  0  0  0  0  0  0
 15 16  1  0
 16 17  2  0
 16 18  1  0
 18 19  1  0
 19 20  1  0
 19 21  1  0
 21 22  1  0
 22 23  1  0
 22 24  2  0
 19 25  1  0
 25 26  1  0
 25 27  2  0
 28 29  1  0
 29 30  2  0
 29 31  1  0
 31 32  1  0
 32 33  1  0
 32 34  1  0
 34 35  1  0
 35 36  1  0
 35 37  2  0
 32 38  1  0
 38 39  1  0
 38 40  2  0
 41 42  1  0
 42 43  2  0
 42 44  1  0
 44 45  1  0
 45 46  1  0
 45 47  1  0
 47 48  1  0
 48 49  1  0
 48 50  2  0
 45 51  1  0
 51 52  1  0
 51 53  2  0
  1 54  1  0
  1 55  1  0
  2 56  1  0
  2 57  1  0
  3 58  1  0
  3 59  1  0
  4 60  1  0
  4 61  1  0
  5 62  1  0
  5 63  1  0
  6 64  1  0
  6 65  1  0
  7 66  1  0
  7 67  1  0
  8 68  1  0
  8 69  1  0
  9 70  1  0
  9 71  1  0
 10 72  1  0
 10 73  1  0
 18 74  1  0
 18 75  1  0
 21 76  1  0
 21 77  1  0
 31 78  1  0
 31 79  1  0
 34 80  1  0
 34 81  1  0
 44 82  1  0
 44 83  1  0
 47 84  1  0
 47 85  1  0
M  CHG  8  11   3  12   3  13   3  14   3  15  -1  20  -1  23  -1  26  -1
M  CHG  8  28  -1  33  -1  36  -1  39  -1  41  -1  46  -1  49  -1  52  -1
M  END
$$$$
