
     RDKit          3D

114116  0  0  0  0  0  0  0  0999 V2000
   13.5130   -6.6750    1.4879 C   0  0  0  0  0  0  0  0  0  0  0  0
   13.6250   -5.5175    2.4793 C   0  0  0  0  0  0  0  0  0  0  0  0
   12.4722   -5.4833    3.4987 C   0  0  0  0  0  0  0  0  0  0  0  0
   11.0710   -5.3026    2.8868 C   0  0  0  0  0  0  0  0  0  0  0  0
   10.9079   -3.9658    2.1482 C   0  0  0  0  0  0  0  0  0  0  0  0
    9.4526   -3.7595    1.7015 C   0  0  0  0  0  0  0  0  0  0  0  0
    9.2111   -2.3740    1.0771 C   0  0  0  0  0  0  0  0  0  0  0  0
    9.8660   -2.2018   -0.3158 C   0  0  1  0  0  0  0  0  0  0  0  0
    9.4355   -3.1837   -1.2275 O   0  0  0  0  0  0  0  0  0  0  0  0
    9.6538   -0.7858   -0.8892 C   0  0  0  0  0  0  0  0  0  0  0  0
    8.2059   -0.4377   -1.1078 C   0  0  0  0  0  0  0  0  0  0  0  0
    7.5820   -0.9476   -2.0250 O   0  0  0  0  0  0  0  0  0  0  0  0
    7.3855    0.7427   -0.0284 S   0  0  0  0  0  0  0  0  0  0  0  0
    7.8855    2.2199   -0.9860 C   0  0  0  0  0  0  0  0  0  0  0  0
    6.9973    2.4260   -2.2164 C   0  0  0  0  0  0  0  0  0  0  0  0
    5.6075    2.6818   -1.8373 N   0  0  0  0  0  0  0  0  0  0  0  0
    4.5818    2.8458   -2.8247 C   0  0  0  0  0  0  0  0  0  0  0  0
    4.8627    2.7766   -4.0521 O   0  0  0  0  0  0  0  0  0  0  0  0
    3.1587    3.0515   -2.4030 C   0  0  0  0  0  0  0  0  0  0  0  0
    2.5000    1.7106   -2.0713 C   0  0  0  0  0  0  0  0  0  0  0  0
    1.1224    1.9163   -1.6304 N   0  0  0  0  0  0  0  0  0  0  0  0
    0.0653    2.2598   -2.5388 C   0  0  0  0  0  0  0  0  0  0  0  0
    0.2870    2.2922   -3.7805 O   0  0  0  0  0  0  0  0  0  0  0  0
   -1.3080    2.6136   -2.0062 C   0  0  2  0  0  0  0  0  0  0  0  0
   -2.3119    2.0442   -2.8129 O   0  0  0  0  0  0  0  0  0  0  0  0
   -1.5172    4.1556   -1.7822 C   0  0  0  0  0  0  0  0  0  0  0  0
   -1.3368    4.9672   -3.0883 C   0  0  0  0  0  0  0  0  0  0  0  0
   -0.4823    4.6690   -0.7519 C   0  0  0  0  0  0  0  0  0  0  0  0
   -2.9326    4.4237   -1.2012 C   0  0  0  0  0  0  0  0  0  0  0  0
   -3.9290    4.0985   -2.1450 O   0  0  0  0  0  0  0  0  0  0  0  0
   -5.4601    4.3307   -1.4265 P   0  0  0  0  0  5  0  0  0  0  0  0
   -6.6652    4.0549   -2.5835 O   0  0  0  0  0  0  0  0  0  0  0  0
   -5.5870    5.7563   -0.9369 O   0  0  0  0  0  0  0  0  0  0  0  0
   -5.6693    3.2747   -0.1064 O   0  0  0  0  0  0  0  0  0  0  0  0
   -5.6141    1.6584   -0.6659 P   0  0  0  0  0  5  0  0  0  0  0  0
   -4.3863    0.8521    0.1725 O   0  0  0  0  0  0  0  0  0  0  0  0
   -5.3377    1.5353   -2.1512 O   0  0  0  0  0  0  0  0  0  0  0  0
   -7.0873    0.8840   -0.2983 O   0  0  0  0  0  0  0  0  0  0  0  0
   -8.1294    1.5694   -0.9527 C   0  0  0  0  0  0  0  0  0  0  0  0
   -9.4781    0.9374   -0.5916 C   0  0  1  0  0  0  0  0  0  0  0  0
   -9.4685   -0.4403   -0.8803 O   0  0  0  0  0  0  0  0  0  0  0  0
  -10.3301   -1.0667    0.0485 C   0  0  2  0  0  0  0  0  0  0  0  0
  -10.7662   -0.0500    1.1124 C   0  0  2  0  0  0  0  0  0  0  0  0
  -12.0988    0.3412    0.8959 O   0  0  0  0  0  0  0  0  0  0  0  0
   -9.8257    1.1096    0.8803 C   0  0  2  0  0  0  0  0  0  0  0  0
  -10.4524    2.3620    1.0868 O   0  0  0  0  0  0  0  0  0  0  0  0
  -10.1273    2.9122    2.6699 P   0  0  0  0  0  5  0  0  0  0  0  0
  -10.5434    1.7281    3.8054 O   0  0  0  0  0  0  0  0  0  0  0  0
  -11.0392    4.3057    2.9674 O   0  0  0  0  0  0  0  0  0  0  0  0
   -8.6579    3.2443    2.8046 O   0  0  0  0  0  0  0  0  0  0  0  0
   -9.6395   -2.1951    0.6762 N   0  0  0  0  0  0  0  0  0  0  0  0
   -8.3459   -2.2621    1.0882 C   0  0  0  0  0  0  0  0  0  0  0  0
   -8.0459   -3.4189    1.7413 N   0  0  0  0  0  0  0  0  0  0  0  0
   -9.2203   -4.0772    1.7329 C   0  0  0  0  0  0  0  0  0  0  0  0
  -10.1704   -3.3453    1.1079 C   0  0  0  0  0  0  0  0  0  0  0  0
  -11.4559   -3.7587    0.9943 N   0  0  0  0  0  0  0  0  0  0  0  0
  -11.7870   -4.9733    1.5278 C   0  0  0  0  0  0  0  0  0  0  0  0
  -10.8397   -5.7368    2.1625 N   0  0  0  0  0  0  0  0  0  0  0  0
   -9.5459   -5.3122    2.2820 C   0  0  0  0  0  0  0  0  0  0  0  0
   -8.5767   -6.1156    2.9552 N   0  0  0  0  0  0  0  0  0  0  0  0
   12.6677   -6.5103    0.7879 H   0  0  0  0  0  0  0  0  0  0  0  0
   14.4463   -6.7399    0.8898 H   0  0  0  0  0  0  0  0  0  0  0  0
   13.3698   -7.6361    2.0259 H   0  0  0  0  0  0  0  0  0  0  0  0
   13.6901   -4.5560    1.9283 H   0  0  0  0  0  0  0  0  0  0  0  0
   14.5773   -5.6330    3.0409 H   0  0  0  0  0  0  0  0  0  0  0  0
   12.6603   -4.6569    4.2183 H   0  0  0  0  0  0  0  0  0  0  0  0
   12.4830   -6.4291    4.0832 H   0  0  0  0  0  0  0  0  0  0  0  0
   10.3350   -5.3460    3.7193 H   0  0  0  0  0  0  0  0  0  0  0  0
   10.8377   -6.1459    2.2026 H   0  0  0  0  0  0  0  0  0  0  0  0
   11.2111   -3.1330    2.8200 H   0  0  0  0  0  0  0  0  0  0  0  0
   11.5650   -3.9653    1.2552 H   0  0  0  0  0  0  0  0  0  0  0  0
    8.7894   -3.8498    2.5898 H   0  0  0  0  0  0  0  0  0  0  0  0
    9.1599   -4.5579    0.9856 H   0  0  0  0  0  0  0  0  0  0  0  0
    8.1128   -2.2277    0.9867 H   0  0  0  0  0  0  0  0  0  0  0  0
    9.5893   -1.5880    1.7671 H   0  0  0  0  0  0  0  0  0  0  0  0
   10.9633   -2.3197   -0.1970 H   0  0  0  0  0  0  0  0  0  0  0  0
    8.4452   -3.2287   -1.1858 H   0  0  0  0  0  0  0  0  0  0  0  0
   10.1073   -0.0467   -0.1936 H   0  0  0  0  0  0  0  0  0  0  0  0
   10.1946   -0.6941   -1.8559 H   0  0  0  0  0  0  0  0  0  0  0  0
    7.8081    3.1098   -0.3259 H   0  0  0  0  0  0  0  0  0  0  0  0
    8.9471    2.1301   -1.3012 H   0  0  0  0  0  0  0  0  0  0  0  0
    7.3814    3.2953   -2.7924 H   0  0  0  0  0  0  0  0  0  0  0  0
    7.0475    1.5305   -2.8707 H   0  0  0  0  0  0  0  0  0  0  0  0
    5.3418    2.7410   -0.8278 H   0  0  0  0  0  0  0  0  0  0  0  0
    2.6003    3.5593   -3.2189 H   0  0  0  0  0  0  0  0  0  0  0  0
    3.1308    3.7117   -1.5093 H   0  0  0  0  0  0  0  0  0  0  0  0
    2.5156    1.0381   -2.9570 H   0  0  0  0  0  0  0  0  0  0  0  0
    3.0705    1.2151   -1.2550 H   0  0  0  0  0  0  0  0  0  0  0  0
    0.9046    1.7959   -0.6156 H   0  0  0  0  0  0  0  0  0  0  0  0
   -1.4025    2.1222   -1.0136 H   0  0  0  0  0  0  0  0  0  0  0  0
   -2.2206    2.4067   -3.7308 H   0  0  0  0  0  0  0  0  0  0  0  0
   -0.3104    4.8486   -3.4946 H   0  0  0  0  0  0  0  0  0  0  0  0
   -2.0619    4.6580   -3.8685 H   0  0  0  0  0  0  0  0  0  0  0  0
   -1.4971    6.0500   -2.8949 H   0  0  0  0  0  0  0  0  0  0  0  0
    0.5531    4.5751   -1.1421 H   0  0  0  0  0  0  0  0  0  0  0  0
   -0.6530    5.7426   -0.5198 H   0  0  0  0  0  0  0  0  0  0  0  0
   -0.5533    4.0950    0.1971 H   0  0  0  0  0  0  0  0  0  0  0  0
   -3.0561    3.8216   -0.2716 H   0  0  0  0  0  0  0  0  0  0  0  0
   -3.0101    5.5024   -0.9319 H   0  0  0  0  0  0  0  0  0  0  0  0
   -6.3996    4.6075   -3.3612 H   0  0  0  0  0  0  0  0  0  0  0  0
   -3.5660    1.3719   -0.0179 H   0  0  0  0  0  0  0  0  0  0  0  0
   -8.1591    2.6413   -0.6514 H   0  0  0  0  0  0  0  0  0  0  0  0
   -8.0035    1.5019   -2.0570 H   0  0  0  0  0  0  0  0  0  0  0  0
  -10.2649    1.4185   -1.2179 H   0  0  0  0  0  0  0  0  0  0  0  0
  -11.2154   -1.4499   -0.5068 H   0  0  0  0  0  0  0  0  0  0  0  0
  -10.6445   -0.4425    2.1495 H   0  0  0  0  0  0  0  0  0  0  0  0
  -12.6678   -0.3887    1.2551 H   0  0  0  0  0  0  0  0  0  0  0  0
   -8.9010    0.9575    1.4893 H   0  0  0  0  0  0  0  0  0  0  0  0
  -11.5208    1.6102    3.6984 H   0  0  0  0  0  0  0  0  0  0  0  0
  -10.8124    4.9191    2.2235 H   0  0  0  0  0  0  0  0  0  0  0  0
   -7.6257   -1.4703    0.9331 H   0  0  0  0  0  0  0  0  0  0  0  0
  -12.8035   -5.3339    1.4512 H   0  0  0  0  0  0  0  0  0  0  0  0
   -8.8504   -7.0380    3.3606 H   0  0  0  0  0  0  0  0  0  0  0  0
   -7.5870   -5.7966    3.0516 H   0  0  0  0  0  0  0  0  0  0  0  0
  1  2  1  0
  2  3  1  0
  3  4  1  0
  4  5  1  0
  5  6  1  0
  6  7  1  0
  7  8  1  0
  8  9  1  0
  8 10  1  0
 10 11  1  0
 11 12  2  0
 11 13  1  0
 13 14  1  0
 14 15  1  0
 15 16  1  0
 16 17  1  0
 17 18  2  0
 17 19  1  0
 19 20  1  0
 20 21  1  0
 21 22  1  0
 22 23  2  0
 22 24  1  0
 24 25  1  0
 24 26  1  0
 26 27  1  0
 26 28  1  0
 26 29  1  0
 29 30  1  0
 30 31  1  0
 31 32  1  0
 31 33  2  0
 31 34  1  0
 34 35  1  0
 35 36  1  0
 35 37  2  0
 35 38  1  0
 38 39  1  0
 39 40  1  0
 40 41  1  0
 41 42  1  0
 42 43  1  0
 43 44  1  0
 43 45  1  0
 45 46  1  0
 46 47  1  0
 47 48  1  0
 47 49  1  0
 47 50  2  0
 42 51  1  0
 51 52  1  0
 52 53  2  0
 53 54  1  0
 54 55  2  0
 55 56  1  0
 56 57  2  0
 57 58  1  0
 58 59  2  0
 59 60  1  0
 45 40  1  0
 55 51  1  0
 59 54  1  0
  1 61  1  0
  1 62  1  0
  1 63  1  0
  2 64  1  0
  2 65  1  0
  3 66  1  0
  3 67  1  0
  4 68  1  0
  4 69  1  0
  5 70  1  0
  5 71  1  0
  6 72  1  0
  6 73  1  0
  7 74  1  0
  7 75  1  0
  8 76  1  1
  9 77  1  0
 10 78  1  0
 10 79  1  0
 14 80  1  0
 14 81  1  0
 15 82  1  0
 15 83  1  0
 16 84  1  0
 19 85  1  0
 19 86  1  0
 20 87  1  0
 20 88  1  0
 21 89  1  0
 24 90  1  1
 25 91  1  0
 27 92  1  0
 27 93  1  0
 27 94  1  0
 28 95  1  0
 28 96  1  0
 28 97  1  0
 29 98  1  0
 29 99  1  0
 32100  1  0
 36101  1  0
 39102  1  0
 39103  1  0
 40104  1  6
 42105  1  6
 43106  1  1
 44107  1  0
 45108  1  1
 48109  1  0
 49110  1  0
 52111  1  0
 57112  1  0
 60113  1  0
 60114  1  0
M  END
$$$$
