
     RDKit          3D

 46 48  0  0  0  0  0  0  0  0999 V2000
    1.7024    1.9146   -0.0526 C   0  0  1  0  0  0  0  0  0  0  0  0
    1.1182    1.1287    1.4963 S   0  0  0  0  0  0  0  0  0  0  0  0
    2.4001   -0.2135    1.4405 C   0  0  0  0  0  0  0  0  0  0  0  0
    1.6982   -1.5064    0.9860 C   0  0  0  0  0  0  0  0  0  0  0  0
    2.9598   -0.4314    2.8596 C   0  0  0  0  0  0  0  0  0  0  0  0
    3.4846    0.1883    0.3891 C   0  0  1  0  0  0  0  0  0  0  0  0
    2.7969    1.1010   -0.4872 N   0  0  0  0  0  0  0  0  0  0  0  0
    2.1135    0.9315   -1.7907 C   0  0  0  0  0  0  0  0  0  0  0  0
    2.3729    0.3201   -2.8597 O   0  0  0  0  0  0  0  0  0  0  0  0
    0.9501    1.7189   -1.2734 C   0  0  1  0  0  0  0  0  0  0  0  0
   -0.2488    0.8890   -1.1268 N   0  0  0  0  0  0  0  0  0  0  0  0
   -1.4842    1.4278   -0.6302 C   0  0  0  0  0  0  0  0  0  0  0  0
   -1.5564    2.6595   -0.3626 O   0  0  0  0  0  0  0  0  0  0  0  0
   -2.7030    0.5285   -0.4293 C   0  0  0  0  0  0  0  0  0  0  0  0
   -3.7919    1.2892    0.2098 N   0  0  0  0  0  0  0  0  0  0  0  0
   -2.3405   -0.6749    0.5077 C   0  0  0  0  0  0  0  0  0  0  0  0
   -2.2166   -2.0183   -0.2260 C   0  0  0  0  0  0  0  0  0  0  0  0
   -3.5006   -2.3647   -0.9995 C   0  0  0  0  0  0  0  0  0  0  0  0
   -4.1649   -1.1466   -1.6748 C   0  0  0  0  0  0  0  0  0  0  0  0
   -3.2015    0.0375   -1.8183 C   0  0  0  0  0  0  0  0  0  0  0  0
    4.6904    0.8786    0.9706 C   0  0  0  0  0  0  0  0  0  0  0  0
    5.8856    0.1790    1.1032 O   0  0  0  0  0  0  0  0  0  0  0  0
    4.6155    2.0724    1.3705 O   0  0  0  0  0  0  0  0  0  0  0  0
    2.0248    2.9684    0.0988 H   0  0  0  0  0  0  0  0  0  0  0  0
    1.2848   -1.3910   -0.0374 H   0  0  0  0  0  0  0  0  0  0  0  0
    2.4139   -2.3566    0.9784 H   0  0  0  0  0  0  0  0  0  0  0  0
    0.8598   -1.7594    1.6701 H   0  0  0  0  0  0  0  0  0  0  0  0
    3.3547    0.5176    3.2795 H   0  0  0  0  0  0  0  0  0  0  0  0
    3.7749   -1.1864    2.8438 H   0  0  0  0  0  0  0  0  0  0  0  0
    2.1597   -0.7895    3.5427 H   0  0  0  0  0  0  0  0  0  0  0  0
    3.8342   -0.6918   -0.1952 H   0  0  0  0  0  0  0  0  0  0  0  0
    0.7722    2.6447   -1.8628 H   0  0  0  0  0  0  0  0  0  0  0  0
   -0.2221   -0.0990   -1.4596 H   0  0  0  0  0  0  0  0  0  0  0  0
   -4.0550    2.1117   -0.3819 H   0  0  0  0  0  0  0  0  0  0  0  0
   -3.4654    1.6619    1.1322 H   0  0  0  0  0  0  0  0  0  0  0  0
   -3.1262   -0.8023    1.2859 H   0  0  0  0  0  0  0  0  0  0  0  0
   -1.3979   -0.4813    1.0631 H   0  0  0  0  0  0  0  0  0  0  0  0
   -2.0042   -2.8226    0.5112 H   0  0  0  0  0  0  0  0  0  0  0  0
   -1.3585   -1.9886   -0.9286 H   0  0  0  0  0  0  0  0  0  0  0  0
   -4.2310   -2.8315   -0.3030 H   0  0  0  0  0  0  0  0  0  0  0  0
   -3.2515   -3.1253   -1.7713 H   0  0  0  0  0  0  0  0  0  0  0  0
   -5.0453   -0.8258   -1.0757 H   0  0  0  0  0  0  0  0  0  0  0  0
   -4.5397   -1.4389   -2.6797 H   0  0  0  0  0  0  0  0  0  0  0  0
   -3.7136    0.8633   -2.3591 H   0  0  0  0  0  0  0  0  0  0  0  0
   -2.3518   -0.2814   -2.4605 H   0  0  0  0  0  0  0  0  0  0  0  0
    6.7035    0.6198    1.5066 H   0  0  0  0  0  0  0  0  0  0  0  0
  1  2  1  0
  2  3  1  0
  3  4  1  0
  3  5  1  0
  3  6  1  0
  6  7  1  0
  7  8  1  0
  8  9  2  0
  8 10  1  0
 10 11  1  0
 11 12  1  0
 12 13  2  0
 12 14  1  0
 14 15  1  0
 14 16  1  0
 16 17  1  0
 17 18  1  0
 18 19  1  0
 19 20  1  0
  6 21  1  0
 21 22  1  0
 21 23  2  0
  7  1  1  0
 20 14  1  0
 10  1  1  0
  1 24  1  1
  4 25  1  0
  4 26  1  0
  4 27  1  0
  5 28  1  0
  5 29  1  0
  5 30  1  0
  6 31  1  6
 10 32  1  6
 11 33  1  0
 15 34  1  0
 15 35  1  0
 16 36  1  0
 16 37  1  0
 17 38  1  0
 17 39  1  0
 18 40  1  0
 18 41  1  0
 19 42  1  0
 19 43  1  0
 20 44  1  0
 20 45  1  0
 22 46  1  0
M  END
$$$$
