
     RDKit          3D

 40 40  0  0  0  0  0  0  0  0999 V2000
   -0.3980   -0.5443   -0.5992 C   0  0  2  0  0  0  0  0  0  0  0  0
   -0.1320   -1.9040   -0.9540 O   0  0  0  0  0  0  0  0  0  0  0  0
    0.8975   -2.5300   -0.1936 C   0  0  2  0  0  0  0  0  0  0  0  0
    0.5893   -2.5038    1.1810 O   0  0  0  0  0  0  0  0  0  0  0  0
    2.2626   -1.8367   -0.4269 C   0  0  0  0  0  0  0  0  0  0  0  0
    2.1177   -0.3438   -0.7610 C   0  0  2  0  0  0  0  0  0  0  0  0
    3.2520    0.3586   -0.3217 O   0  0  0  0  0  0  0  0  0  0  0  0
    0.8610    0.2391   -0.1064 C   0  0  1  0  0  0  0  0  0  0  0  0
    0.7561    1.6615   -0.4563 N   0  0  0  0  0  0  0  0  0  0  0  0
    1.1524    2.7156    0.4329 C   0  0  0  0  0  0  0  0  0  0  0  0
    1.0582    4.1373   -0.0144 C   0  0  0  0  0  0  0  0  0  0  0  0
    1.5887    2.4530    1.5862 O   0  0  0  0  0  0  0  0  0  0  0  0
    1.0162   -3.9692   -0.6352 C   0  0  0  0  0  0  0  0  0  0  0  0
    1.5746   -4.9141    0.2214 O   0  0  0  0  0  0  0  0  0  0  0  0
    0.6626   -4.3108   -1.7963 O   0  0  0  0  0  0  0  0  0  0  0  0
   -1.6075   -0.4761    0.3828 C   0  0  2  0  0  0  0  0  0  0  0  0
   -2.6500   -1.2856   -0.1046 O   0  0  0  0  0  0  0  0  0  0  0  0
   -2.1583    0.9518    0.6495 C   0  0  2  0  0  0  0  0  0  0  0  0
   -3.1089    0.9084    1.6861 O   0  0  0  0  0  0  0  0  0  0  0  0
   -2.7592    1.6315   -0.5996 C   0  0  0  0  0  0  0  0  0  0  0  0
   -3.2579    2.9003   -0.2697 O   0  0  0  0  0  0  0  0  0  0  0  0
   -0.7234   -0.0754   -1.5503 H   0  0  0  0  0  0  0  0  0  0  0  0
   -0.2678   -2.9915    1.3028 H   0  0  0  0  0  0  0  0  0  0  0  0
    2.8934   -1.9629    0.4816 H   0  0  0  0  0  0  0  0  0  0  0  0
    2.8160   -2.3140   -1.2674 H   0  0  0  0  0  0  0  0  0  0  0  0
    2.0139   -0.2297   -1.8670 H   0  0  0  0  0  0  0  0  0  0  0  0
    3.9885    0.1306   -0.9474 H   0  0  0  0  0  0  0  0  0  0  0  0
    0.9503    0.1224    0.9969 H   0  0  0  0  0  0  0  0  0  0  0  0
    0.5184    1.9179   -1.4416 H   0  0  0  0  0  0  0  0  0  0  0  0
    1.7827    4.3154   -0.8360 H   0  0  0  0  0  0  0  0  0  0  0  0
    0.0309    4.3439   -0.3810 H   0  0  0  0  0  0  0  0  0  0  0  0
    1.2851    4.8280    0.8254 H   0  0  0  0  0  0  0  0  0  0  0  0
    1.6806   -5.8791   -0.0677 H   0  0  0  0  0  0  0  0  0  0  0  0
   -1.2772   -0.8577    1.3753 H   0  0  0  0  0  0  0  0  0  0  0  0
   -2.4705   -2.2132    0.2002 H   0  0  0  0  0  0  0  0  0  0  0  0
   -1.3299    1.5875    1.0177 H   0  0  0  0  0  0  0  0  0  0  0  0
   -3.8964    0.4019    1.3557 H   0  0  0  0  0  0  0  0  0  0  0  0
   -3.5625    1.0008   -1.0449 H   0  0  0  0  0  0  0  0  0  0  0  0
   -1.9778    1.7718   -1.3717 H   0  0  0  0  0  0  0  0  0  0  0  0
   -4.1713    2.7645    0.0946 H   0  0  0  0  0  0  0  0  0  0  0  0
  1  2  1  0
  2  3  1  0
  3  4  1  1
  3  5  1  0
  5  6  1  0
  6  7  1  0
  6  8  1  0
  8  9  1  0
  9 10  1  0
 10 11  1  0
 10 12  2  0
  3 13  1  0
 13 14  1  0
 13 15  2  0
  1 16  1  0
 16 17  1  0
 16 18  1  0
 18 19  1  0
 18 20  1  0
 20 21  1  0
  8  1  1  0
  1 22  1  6
  4 23  1  0
  5 24  1  0
  5 25  1  0
  6 26  1  6
  7 27  1  0
  8 28  1  1
  9 29  1  0
 11 30  1  0
 11 31  1  0
 11 32  1  0
 14 33  1  0
 16 34  1  1
 17 35  1  0
 18 36  1  1
 19 37  1  0
 20 38  1  0
 20 39  1  0
 21 40  1  0
M  END
$$$$
