
     RDKit          3D

 55 59  0  0  0  0  0  0  0  0999 V2000
   -3.3281    3.6564   -0.3877 N   0  0  0  0  0  0  0  0  0  0  0  0
   -3.8675    2.4394    0.1379 C   0  0  0  0  0  0  0  0  0  0  0  0
   -5.1473    2.4414    0.6032 N   0  0  0  0  0  0  0  0  0  0  0  0
   -5.7482    1.3209    1.0792 C   0  0  0  0  0  0  0  0  0  0  0  0
   -5.0551    0.1137    1.0978 C   0  0  0  0  0  0  0  0  0  0  0  0
   -3.7396    0.0738    0.6387 C   0  0  0  0  0  0  0  0  0  0  0  0
   -3.1204    1.2381    0.1497 C   0  0  0  0  0  0  0  0  0  0  0  0
   -1.7370    1.2189   -0.2505 N   0  0  0  0  0  0  0  0  0  0  0  0
   -1.1420    0.1362   -1.0370 C   0  0  0  0  0  0  0  0  0  0  0  0
    0.2391   -0.1908   -0.5207 C   0  0  0  0  0  0  0  0  0  0  0  0
    0.4267   -0.5943    0.8165 C   0  0  0  0  0  0  0  0  0  0  0  0
   -0.6901   -0.6713    1.6626 O   0  0  0  0  0  0  0  0  0  0  0  0
   -0.6413   -0.9531    3.0570 C   0  0  0  0  0  0  0  0  0  0  0  0
   -2.0205   -0.8235    3.6217 C   0  0  0  0  0  0  0  0  0  0  0  0
   -2.4727    0.4009    4.0112 N   0  0  0  0  0  0  0  0  0  0  0  0
   -3.7375    0.5844    4.4761 C   0  0  0  0  0  0  0  0  0  0  0  0
   -4.6177   -0.4969    4.5537 C   0  0  0  0  0  0  0  0  0  0  0  0
   -4.1852   -1.7596    4.1447 C   0  0  0  0  0  0  0  0  0  0  0  0
   -2.8832   -1.9283    3.6688 C   0  0  0  0  0  0  0  0  0  0  0  0
    1.7223   -0.9006    1.2700 C   0  0  0  0  0  0  0  0  0  0  0  0
    2.8154   -0.8064    0.4074 C   0  0  0  0  0  0  0  0  0  0  0  0
    2.6402   -0.4062   -0.9266 C   0  0  0  0  0  0  0  0  0  0  0  0
    1.3460   -0.1016   -1.3817 C   0  0  0  0  0  0  0  0  0  0  0  0
    3.8047   -0.3088   -1.8428 C   0  0  0  0  0  0  0  0  0  0  0  0
    3.6990   -0.7556   -3.1823 C   0  0  0  0  0  0  0  0  0  0  0  0
    4.8182   -0.6447   -4.0048 C   0  0  0  0  0  0  0  0  0  0  0  0
    5.9973   -0.1209   -3.5508 C   0  0  0  0  0  0  0  0  0  0  0  0
    6.8937   -0.1533   -4.5966 C   0  0  0  0  0  0  0  0  0  0  0  0
    6.1910   -0.7121   -5.6594 C   0  0  0  0  0  0  0  0  0  0  0  0
    4.9236   -1.0110   -5.2927 N   0  0  0  0  0  0  0  0  0  0  0  0
    6.1459    0.3305   -2.2436 C   0  0  0  0  0  0  0  0  0  0  0  0
    5.0366    0.2336   -1.3846 C   0  0  0  0  0  0  0  0  0  0  0  0
   -2.4325    3.6874   -0.9210 H   0  0  0  0  0  0  0  0  0  0  0  0
   -3.8842    4.5379   -0.3244 H   0  0  0  0  0  0  0  0  0  0  0  0
   -6.7663    1.3682    1.4416 H   0  0  0  0  0  0  0  0  0  0  0  0
   -5.5275   -0.7812    1.4815 H   0  0  0  0  0  0  0  0  0  0  0  0
   -3.2016   -0.8612    0.7028 H   0  0  0  0  0  0  0  0  0  0  0  0
   -1.1583    2.0775   -0.1137 H   0  0  0  0  0  0  0  0  0  0  0  0
   -1.1028    0.4589   -2.0995 H   0  0  0  0  0  0  0  0  0  0  0  0
   -1.7620   -0.7822   -1.0073 H   0  0  0  0  0  0  0  0  0  0  0  0
    0.0303   -0.2268    3.5643 H   0  0  0  0  0  0  0  0  0  0  0  0
   -0.2495   -1.9803    3.2225 H   0  0  0  0  0  0  0  0  0  0  0  0
   -4.0616    1.5711    4.7785 H   0  0  0  0  0  0  0  0  0  0  0  0
   -5.6269   -0.3557    4.9180 H   0  0  0  0  0  0  0  0  0  0  0  0
   -4.8604   -2.6042    4.1882 H   0  0  0  0  0  0  0  0  0  0  0  0
   -2.5536   -2.9045    3.3358 H   0  0  0  0  0  0  0  0  0  0  0  0
    1.8954   -1.2186    2.2889 H   0  0  0  0  0  0  0  0  0  0  0  0
    3.7983   -1.0655    0.7807 H   0  0  0  0  0  0  0  0  0  0  0  0
    1.2006    0.2237   -2.4047 H   0  0  0  0  0  0  0  0  0  0  0  0
    2.7842   -1.1899   -3.5653 H   0  0  0  0  0  0  0  0  0  0  0  0
    7.9226    0.1816   -4.5938 H   0  0  0  0  0  0  0  0  0  0  0  0
    6.5902   -0.8898   -6.6492 H   0  0  0  0  0  0  0  0  0  0  0  0
    4.1825   -1.4386   -5.8913 H   0  0  0  0  0  0  0  0  0  0  0  0
    7.0837    0.7463   -1.8979 H   0  0  0  0  0  0  0  0  0  0  0  0
    5.1330    0.5967   -0.3693 H   0  0  0  0  0  0  0  0  0  0  0  0
  1  2  1  0
  2  3  2  0
  3  4  1  0
  4  5  2  0
  5  6  1  0
  6  7  2  0
  7  8  1  0
  8  9  1  0
  9 10  1  0
 10 11  1  0
 11 12  1  0
 12 13  1  0
 13 14  1  0
 14 15  2  0
 15 16  1  0
 16 17  2  0
 17 18  1  0
 18 19  2  0
 11 20  2  0
 20 21  1  0
 21 22  2  0
 22 23  1  0
 22 24  1  0
 24 25  2  0
 25 26  1  0
 26 27  2  0
 27 28  1  0
 28 29  2  0
 29 30  1  0
 27 31  1  0
 31 32  2  0
  7  2  1  0
 23 10  2  0
 32 24  1  0
 19 14  1  0
 30 26  1  0
  1 33  1  0
  1 34  1  0
  4 35  1  0
  5 36  1  0
  6 37  1  0
  8 38  1  0
  9 39  1  0
  9 40  1  0
 13 41  1  0
 13 42  1  0
 16 43  1  0
 17 44  1  0
 18 45  1  0
 19 46  1  0
 20 47  1  0
 21 48  1  0
 23 49  1  0
 25 50  1  0
 28 51  1  0
 29 52  1  0
 30 53  1  0
 31 54  1  0
 32 55  1  0
M  END
$$$$
