
     RDKit          3D

 38 40  0  0  0  0  0  0  0  0999 V2000
   -3.5090    1.4823    0.1671 C   0  0  0  0  0  0  0  0  0  0  0  0
   -2.9513    0.0909    0.5228 C   0  0  0  0  0  0  0  0  0  0  0  0
   -3.8026   -1.0049   -0.1475 C   0  0  0  0  0  0  0  0  0  0  0  0
   -3.0353   -0.0941    2.0543 C   0  0  0  0  0  0  0  0  0  0  0  0
   -1.5475   -0.0162    0.0686 N   0  0  0  0  0  0  0  0  0  0  0  0
   -0.5075   -0.2000    0.8782 N   0  0  0  0  0  0  0  0  0  0  0  0
    0.6262   -0.2336    0.1359 C   0  0  0  0  0  0  0  0  0  0  0  0
    0.2841   -0.0758   -1.2015 C   0  0  0  0  0  0  0  0  0  0  0  0
    0.9692   -0.0703   -2.4220 C   0  0  0  0  0  0  0  0  0  0  0  0
    2.3597   -0.3786   -2.5289 N   0  0  0  0  0  0  0  0  0  0  0  0
    0.2397    0.1563   -3.5543 N   0  0  0  0  0  0  0  0  0  0  0  0
   -1.1154    0.3471   -3.5111 C   0  0  0  0  0  0  0  0  0  0  0  0
   -1.7838    0.2910   -2.3228 N   0  0  0  0  0  0  0  0  0  0  0  0
   -1.0712    0.0733   -1.1907 C   0  0  0  0  0  0  0  0  0  0  0  0
    1.9682   -0.2892    0.7399 C   0  0  0  0  0  0  0  0  0  0  0  0
    2.2461   -1.2393    1.7342 C   0  0  0  0  0  0  0  0  0  0  0  0
    3.5038   -1.2728    2.3436 C   0  0  0  0  0  0  0  0  0  0  0  0
    4.4850   -0.3473    1.9781 C   0  0  0  0  0  0  0  0  0  0  0  0
    4.2097    0.6221    1.0081 C   0  0  0  0  0  0  0  0  0  0  0  0
    5.1922    1.5470    0.6622 O   0  0  0  0  0  0  0  0  0  0  0  0
    2.9484    0.6568    0.3963 C   0  0  0  0  0  0  0  0  0  0  0  0
   -4.5414    1.6041    0.5606 H   0  0  0  0  0  0  0  0  0  0  0  0
   -2.8675    2.2766    0.6058 H   0  0  0  0  0  0  0  0  0  0  0  0
   -3.5456    1.6323   -0.9316 H   0  0  0  0  0  0  0  0  0  0  0  0
   -3.3686   -2.0072    0.0576 H   0  0  0  0  0  0  0  0  0  0  0  0
   -4.8443   -0.9850    0.2397 H   0  0  0  0  0  0  0  0  0  0  0  0
   -3.8491   -0.8640   -1.2468 H   0  0  0  0  0  0  0  0  0  0  0  0
   -2.4403    0.6870    2.5751 H   0  0  0  0  0  0  0  0  0  0  0  0
   -2.6414   -1.0909    2.3485 H   0  0  0  0  0  0  0  0  0  0  0  0
   -4.0874   -0.0191    2.4056 H   0  0  0  0  0  0  0  0  0  0  0  0
    2.8714   -0.8640   -1.7617 H   0  0  0  0  0  0  0  0  0  0  0  0
    2.8454   -0.2687   -3.4465 H   0  0  0  0  0  0  0  0  0  0  0  0
   -1.6624    0.5238   -4.4268 H   0  0  0  0  0  0  0  0  0  0  0  0
    1.4929   -1.9593    2.0305 H   0  0  0  0  0  0  0  0  0  0  0  0
    3.7171   -2.0151    3.1019 H   0  0  0  0  0  0  0  0  0  0  0  0
    5.4570   -0.3780    2.4540 H   0  0  0  0  0  0  0  0  0  0  0  0
    5.0242    2.2614   -0.0365 H   0  0  0  0  0  0  0  0  0  0  0  0
    2.7314    1.4215   -0.3396 H   0  0  0  0  0  0  0  0  0  0  0  0
  1  2  1  0
  2  3  1  0
  2  4  1  0
  2  5  1  0
  5  6  1  0
  6  7  2  0
  7  8  1  0
  8  9  2  0
  9 10  1  0
  9 11  1  0
 11 12  2  0
 12 13  1  0
 13 14  2  0
  7 15  1  0
 15 16  2  0
 16 17  1  0
 17 18  2  0
 18 19  1  0
 19 20  1  0
 19 21  2  0
 14  5  1  0
 21 15  1  0
 14  8  1  0
  1 22  1  0
  1 23  1  0
  1 24  1  0
  3 25  1  0
  3 26  1  0
  3 27  1  0
  4 28  1  0
  4 29  1  0
  4 30  1  0
 10 31  1  0
 10 32  1  0
 12 33  1  0
 16 34  1  0
 17 35  1  0
 18 36  1  0
 20 37  1  0
 21 38  1  0
M  END
$$$$
