
     RDKit          3D

 47 49  0  0  0  0  0  0  0  0999 V2000
   -6.5536   -0.6757    3.3882 C   0  0  0  0  0  0  0  0  0  0  0  0
   -5.3289   -0.0115    2.8320 C   0  0  0  0  0  0  0  0  0  0  0  0
   -4.9488   -0.2328    1.4988 C   0  0  0  0  0  0  0  0  0  0  0  0
   -3.7779    0.3458    0.9833 C   0  0  0  0  0  0  0  0  0  0  0  0
   -3.4267    0.1264   -0.3945 N   0  0  0  0  0  0  0  0  0  0  0  0
   -2.0684    0.1189   -0.8692 C   0  0  0  0  0  0  0  0  0  0  0  0
   -1.0768   -0.2851   -0.0287 N   0  0  0  0  0  0  0  0  0  0  0  0
    0.2260   -0.3001   -0.4086 C   0  0  0  0  0  0  0  0  0  0  0  0
    1.2316   -0.7036    0.5317 N   0  0  0  0  0  0  0  0  0  0  0  0
    2.6017   -0.9686    0.1864 C   0  0  0  0  0  0  0  0  0  0  0  0
    2.9443   -1.5955   -1.0246 C   0  0  0  0  0  0  0  0  0  0  0  0
    4.2824   -1.8637   -1.3275 C   0  0  0  0  0  0  0  0  0  0  0  0
    5.2961   -1.5318   -0.4155 C   0  0  0  0  0  0  0  0  0  0  0  0
    6.7377   -1.7900   -0.7559 C   0  0  0  0  0  0  0  0  0  0  0  0
    7.3186   -0.6058   -1.4592 C   0  0  0  0  0  0  0  0  0  0  0  0
    7.8703    0.4363   -0.7208 O   0  0  0  0  0  0  0  0  0  0  0  0
    7.2725   -0.5323   -2.7163 O   0  0  0  0  0  0  0  0  0  0  0  0
    4.9539   -0.9161    0.7983 C   0  0  0  0  0  0  0  0  0  0  0  0
    3.6157   -0.6490    1.1010 C   0  0  0  0  0  0  0  0  0  0  0  0
    0.5648    0.1214   -1.6541 N   0  0  0  0  0  0  0  0  0  0  0  0
   -0.3788    0.5331   -2.5369 C   0  0  0  0  0  0  0  0  0  0  0  0
   -1.7343    0.5353   -2.1787 C   0  0  0  0  0  0  0  0  0  0  0  0
   -2.7375    1.0060   -3.1609 C   0  0  0  0  0  0  0  0  0  0  0  0
   -2.4836    2.1658   -3.9559 N   0  0  0  0  0  0  0  0  0  0  0  0
   -3.8087    0.3669   -3.3338 O   0  0  0  0  0  0  0  0  0  0  0  0
   -2.9973    1.1697    1.8144 C   0  0  0  0  0  0  0  0  0  0  0  0
   -3.3638    1.3770    3.1464 C   0  0  0  0  0  0  0  0  0  0  0  0
   -4.5189    0.7814    3.6580 C   0  0  0  0  0  0  0  0  0  0  0  0
   -6.9942   -0.0656    4.2053 H   0  0  0  0  0  0  0  0  0  0  0  0
   -7.3249   -0.7989    2.5983 H   0  0  0  0  0  0  0  0  0  0  0  0
   -6.2820   -1.6748    3.7882 H   0  0  0  0  0  0  0  0  0  0  0  0
   -5.5590   -0.8627    0.8625 H   0  0  0  0  0  0  0  0  0  0  0  0
   -4.1906   -0.1624   -1.0426 H   0  0  0  0  0  0  0  0  0  0  0  0
    0.9654   -0.7253    1.5424 H   0  0  0  0  0  0  0  0  0  0  0  0
    2.1792   -1.8985   -1.7269 H   0  0  0  0  0  0  0  0  0  0  0  0
    4.5279   -2.3372   -2.2702 H   0  0  0  0  0  0  0  0  0  0  0  0
    7.3210   -1.9920    0.1685 H   0  0  0  0  0  0  0  0  0  0  0  0
    6.8268   -2.6916   -1.4007 H   0  0  0  0  0  0  0  0  0  0  0  0
    8.2526    1.2536   -1.1813 H   0  0  0  0  0  0  0  0  0  0  0  0
    5.7232   -0.6435    1.5102 H   0  0  0  0  0  0  0  0  0  0  0  0
    3.3682   -0.1790    2.0446 H   0  0  0  0  0  0  0  0  0  0  0  0
   -0.0687    0.8473   -3.5253 H   0  0  0  0  0  0  0  0  0  0  0  0
   -3.1758    2.4709   -4.6756 H   0  0  0  0  0  0  0  0  0  0  0  0
   -1.6285    2.7456   -3.8049 H   0  0  0  0  0  0  0  0  0  0  0  0
   -2.1139    1.6641    1.4321 H   0  0  0  0  0  0  0  0  0  0  0  0
   -2.7529    2.0041    3.7829 H   0  0  0  0  0  0  0  0  0  0  0  0
   -4.7855    0.9448    4.6950 H   0  0  0  0  0  0  0  0  0  0  0  0
  1  2  1  0
  2  3  2  0
  3  4  1  0
  4  5  1  0
  5  6  1  0
  6  7  2  0
  7  8  1  0
  8  9  1  0
  9 10  1  0
 10 11  2  0
 11 12  1  0
 12 13  2  0
 13 14  1  0
 14 15  1  0
 15 16  1  0
 15 17  2  0
 13 18  1  0
 18 19  2  0
  8 20  2  0
 20 21  1  0
 21 22  2  0
 22 23  1  0
 23 24  1  0
 23 25  2  0
  4 26  2  0
 26 27  1  0
 27 28  2  0
 28  2  1  0
 22  6  1  0
 19 10  1  0
  1 29  1  0
  1 30  1  0
  1 31  1  0
  3 32  1  0
  5 33  1  0
  9 34  1  0
 11 35  1  0
 12 36  1  0
 14 37  1  0
 14 38  1  0
 16 39  1  0
 18 40  1  0
 19 41  1  0
 21 42  1  0
 24 43  1  0
 24 44  1  0
 26 45  1  0
 27 46  1  0
 28 47  1  0
M  END
$$$$
