
     RDKit          3D

 46 48  0  0  0  0  0  0  0  0999 V2000
    3.1782   -2.7632    0.4986 C   0  0  0  0  0  0  0  0  0  0  0  0
    3.2229   -1.4065   -0.1408 C   0  0  0  0  0  0  0  0  0  0  0  0
    4.4458   -0.7532   -0.3218 C   0  0  0  0  0  0  0  0  0  0  0  0
    4.4870    0.5126   -0.9049 C   0  0  0  0  0  0  0  0  0  0  0  0
    3.3044    1.1616   -1.2975 C   0  0  0  0  0  0  0  0  0  0  0  0
    3.4060    2.5111   -1.9612 C   0  0  0  0  0  0  0  0  0  0  0  0
    2.0509    0.5447   -1.0433 C   0  0  0  0  0  0  0  0  0  0  0  0
    0.7483    1.2234   -1.4403 C   0  0  0  0  0  0  0  0  0  0  0  0
   -0.4194    0.8351   -0.5763 C   0  0  0  0  0  0  0  0  0  0  0  0
   -1.4359    0.0662   -1.0371 N   0  0  0  0  0  0  0  0  0  0  0  0
   -2.2807   -0.1774   -0.0397 N   0  0  0  0  0  0  0  0  0  0  0  0
   -1.7929    0.4279    1.0627 C   0  0  0  0  0  0  0  0  0  0  0  0
   -0.6276    1.0814    0.7783 C   0  0  0  0  0  0  0  0  0  0  0  0
    0.0548    1.7486    1.8061 C   0  0  0  0  0  0  0  0  0  0  0  0
    1.2689    2.4715    1.5989 N   0  0  0  0  0  0  0  0  0  0  0  0
   -0.4896    1.7035    3.0580 N   0  0  0  0  0  0  0  0  0  0  0  0
   -1.6571    1.0377    3.3142 C   0  0  0  0  0  0  0  0  0  0  0  0
   -2.3171    0.3910    2.3117 N   0  0  0  0  0  0  0  0  0  0  0  0
   -3.4956   -1.0128   -0.1600 C   0  0  0  0  0  0  0  0  0  0  0  0
   -3.6870   -1.4737   -1.6222 C   0  0  0  0  0  0  0  0  0  0  0  0
   -4.7353   -0.1988    0.2593 C   0  0  0  0  0  0  0  0  0  0  0  0
   -3.3583   -2.2611    0.7323 C   0  0  0  0  0  0  0  0  0  0  0  0
    2.0341   -0.7573   -0.4985 C   0  0  0  0  0  0  0  0  0  0  0  0
    2.3300   -3.3571    0.0961 H   0  0  0  0  0  0  0  0  0  0  0  0
    3.0525   -2.6498    1.5956 H   0  0  0  0  0  0  0  0  0  0  0  0
    4.1152   -3.3250    0.2975 H   0  0  0  0  0  0  0  0  0  0  0  0
    5.3718   -1.2303   -0.0250 H   0  0  0  0  0  0  0  0  0  0  0  0
    5.4500    0.9843   -1.0575 H   0  0  0  0  0  0  0  0  0  0  0  0
    2.7789    2.5359   -2.8771 H   0  0  0  0  0  0  0  0  0  0  0  0
    3.0718    3.3031   -1.2597 H   0  0  0  0  0  0  0  0  0  0  0  0
    4.4495    2.7372   -2.2679 H   0  0  0  0  0  0  0  0  0  0  0  0
    0.5260    0.9469   -2.4930 H   0  0  0  0  0  0  0  0  0  0  0  0
    0.8304    2.3282   -1.4142 H   0  0  0  0  0  0  0  0  0  0  0  0
    1.7607    2.8991    2.4146 H   0  0  0  0  0  0  0  0  0  0  0  0
    1.6564    2.6550    0.6533 H   0  0  0  0  0  0  0  0  0  0  0  0
   -2.0579    1.0225    4.3182 H   0  0  0  0  0  0  0  0  0  0  0  0
   -4.6013   -2.0976   -1.7248 H   0  0  0  0  0  0  0  0  0  0  0  0
   -2.8168   -2.0781   -1.9584 H   0  0  0  0  0  0  0  0  0  0  0  0
   -3.7876   -0.5963   -2.2970 H   0  0  0  0  0  0  0  0  0  0  0  0
   -5.6644   -0.7877    0.0993 H   0  0  0  0  0  0  0  0  0  0  0  0
   -4.6935    0.0777    1.3326 H   0  0  0  0  0  0  0  0  0  0  0  0
   -4.8016    0.7350   -0.3395 H   0  0  0  0  0  0  0  0  0  0  0  0
   -4.2338   -2.9339    0.6042 H   0  0  0  0  0  0  0  0  0  0  0  0
   -2.4377   -2.8238    0.4659 H   0  0  0  0  0  0  0  0  0  0  0  0
   -3.2977   -1.9838    1.8049 H   0  0  0  0  0  0  0  0  0  0  0  0
    1.0946   -1.2735   -0.3446 H   0  0  0  0  0  0  0  0  0  0  0  0
  1  2  1  0
  2  3  2  0
  3  4  1  0
  4  5  2  0
  5  6  1  0
  5  7  1  0
  7  8  1  0
  8  9  1  0
  9 10  2  0
 10 11  1  0
 11 12  1  0
 12 13  2  0
 13 14  1  0
 14 15  1  0
 14 16  2  0
 16 17  1  0
 17 18  2  0
 11 19  1  0
 19 20  1  0
 19 21  1  0
 19 22  1  0
  7 23  2  0
 23  2  1  0
 13  9  1  0
 18 12  1  0
  1 24  1  0
  1 25  1  0
  1 26  1  0
  3 27  1  0
  4 28  1  0
  6 29  1  0
  6 30  1  0
  6 31  1  0
  8 32  1  0
  8 33  1  0
 15 34  1  0
 15 35  1  0
 17 36  1  0
 20 37  1  0
 20 38  1  0
 20 39  1  0
 21 40  1  0
 21 41  1  0
 21 42  1  0
 22 43  1  0
 22 44  1  0
 22 45  1  0
 23 46  1  0
M  END
$$$$
