
     RDKit          3D

 62 67  0  0  0  0  0  0  0  0999 V2000
   -6.0298    1.0993    1.0635 C   0  0  0  0  0  0  0  0  0  0  0  0
   -4.9545    1.1440    0.0736 C   0  0  0  0  0  0  0  0  0  0  0  0
   -4.0658    1.1791   -0.7404 C   0  0  0  0  0  0  0  0  0  0  0  0
   -2.9729    1.2193   -1.7440 C   0  0  2  0  0  0  0  0  0  0  0  0
   -2.9072    2.5167   -2.2897 O   0  0  0  0  0  0  0  0  0  0  0  0
   -3.2459    0.1572   -2.8426 C   0  0  0  0  0  0  0  0  0  0  0  0
   -2.3674   -1.0622   -2.5153 C   0  0  0  0  0  0  0  0  0  0  0  0
   -1.7205   -0.7402   -1.1686 C   0  0  1  0  0  0  0  0  0  0  0  0
   -0.4088   -1.4731   -0.8201 C   0  0  2  0  0  0  0  0  0  0  0  0
   -0.6801   -2.9855   -0.7246 C   0  0  0  0  0  0  0  0  0  0  0  0
    0.6110   -3.7349   -0.4350 C   0  0  0  0  0  0  0  0  0  0  0  0
    1.3122   -3.1559    0.7628 C   0  0  0  0  0  0  0  0  0  0  0  0
    2.2541   -3.8975    1.3678 C   0  0  0  0  0  0  0  0  0  0  0  0
    3.0680   -3.3577    2.4638 C   0  0  0  0  0  0  0  0  0  0  0  0
    3.8724   -4.1077    3.0776 O   0  0  0  0  0  0  0  0  0  0  0  0
    3.0074   -1.8985    2.7867 C   0  0  0  0  0  0  0  0  0  0  0  0
    1.5919   -1.3553    2.5805 C   0  0  0  0  0  0  0  0  0  0  0  0
    1.0258   -1.7554    1.2199 C   0  0  0  0  0  0  0  0  0  0  0  0
    0.1868   -0.9457    0.4993 C   0  0  0  0  0  0  0  0  0  0  0  0
   -0.0602    0.5197    0.9364 C   0  0  2  0  0  0  0  0  0  0  0  0
   -1.3126    1.2071    0.3067 C   0  0  0  0  0  0  0  0  0  0  0  0
   -1.5925    0.7833   -1.1531 C   0  0  2  0  0  0  0  0  0  0  0  0
   -0.4571    1.3148   -2.0847 C   0  0  0  0  0  0  0  0  0  0  0  0
    1.1771    1.4101    0.8125 C   0  0  0  0  0  0  0  0  0  0  0  0
    1.2146    2.6311    1.5412 C   0  0  0  0  0  0  0  0  0  0  0  0
    2.3374    3.4751    1.4829 C   0  0  0  0  0  0  0  0  0  0  0  0
    3.4118    3.0728    0.6995 C   0  0  0  0  0  0  0  0  0  0  0  0
    4.6135    3.7209    0.4889 O   0  0  0  0  0  0  0  0  0  0  0  0
    5.4048    2.9104   -0.3911 C   0  0  0  0  0  0  0  0  0  0  0  0
    4.5916    1.7630   -0.6731 O   0  0  0  0  0  0  0  0  0  0  0  0
    3.3983    1.9080    0.0076 C   0  0  0  0  0  0  0  0  0  0  0  0
    2.3088    1.0441    0.0354 C   0  0  0  0  0  0  0  0  0  0  0  0
   -5.8992    1.9285    1.7889 H   0  0  0  0  0  0  0  0  0  0  0  0
   -5.9968    0.1293    1.6011 H   0  0  0  0  0  0  0  0  0  0  0  0
   -7.0084    1.2057    0.5518 H   0  0  0  0  0  0  0  0  0  0  0  0
   -3.7561    2.6825   -2.7794 H   0  0  0  0  0  0  0  0  0  0  0  0
   -2.9638    0.5517   -3.8438 H   0  0  0  0  0  0  0  0  0  0  0  0
   -4.3192   -0.1347   -2.8910 H   0  0  0  0  0  0  0  0  0  0  0  0
   -1.5906   -1.1991   -3.2996 H   0  0  0  0  0  0  0  0  0  0  0  0
   -2.9836   -1.9853   -2.4500 H   0  0  0  0  0  0  0  0  0  0  0  0
   -2.4650   -1.0355   -0.3891 H   0  0  0  0  0  0  0  0  0  0  0  0
    0.3331   -1.3209   -1.6328 H   0  0  0  0  0  0  0  0  0  0  0  0
   -1.0958   -3.3677   -1.6816 H   0  0  0  0  0  0  0  0  0  0  0  0
   -1.4177   -3.1941    0.0828 H   0  0  0  0  0  0  0  0  0  0  0  0
    0.3676   -4.8066   -0.2621 H   0  0  0  0  0  0  0  0  0  0  0  0
    1.2861   -3.6685   -1.3161 H   0  0  0  0  0  0  0  0  0  0  0  0
    2.4469   -4.9112    1.0350 H   0  0  0  0  0  0  0  0  0  0  0  0
    3.7135   -1.3552    2.1218 H   0  0  0  0  0  0  0  0  0  0  0  0
    3.3170   -1.7289    3.8409 H   0  0  0  0  0  0  0  0  0  0  0  0
    1.6545   -0.2631    2.7355 H   0  0  0  0  0  0  0  0  0  0  0  0
    0.9242   -1.7641    3.3694 H   0  0  0  0  0  0  0  0  0  0  0  0
   -0.3061    0.4778    2.0210 H   0  0  0  0  0  0  0  0  0  0  0  0
   -2.1790    0.9346    0.9475 H   0  0  0  0  0  0  0  0  0  0  0  0
   -1.2411    2.3150    0.3624 H   0  0  0  0  0  0  0  0  0  0  0  0
    0.5246    0.8715   -1.8622 H   0  0  0  0  0  0  0  0  0  0  0  0
   -0.6659    1.1020   -3.1535 H   0  0  0  0  0  0  0  0  0  0  0  0
   -0.3514    2.4150   -1.9724 H   0  0  0  0  0  0  0  0  0  0  0  0
    0.3739    2.9232    2.1581 H   0  0  0  0  0  0  0  0  0  0  0  0
    2.3671    4.4055    2.0345 H   0  0  0  0  0  0  0  0  0  0  0  0
    5.6242    3.4640   -1.3281 H   0  0  0  0  0  0  0  0  0  0  0  0
    6.3433    2.5999    0.1143 H   0  0  0  0  0  0  0  0  0  0  0  0
    2.3514    0.1220   -0.5277 H   0  0  0  0  0  0  0  0  0  0  0  0
  1  2  1  0
  2  3  3  0
  4  3  1  1
  4  5  1  0
  4  6  1  0
  6  7  1  0
  7  8  1  0
  8  9  1  0
  9 10  1  0
 10 11  1  0
 11 12  1  0
 12 13  2  0
 13 14  1  0
 14 15  2  0
 14 16  1  0
 16 17  1  0
 17 18  1  0
 18 19  2  0
 19 20  1  0
 20 21  1  0
 21 22  1  0
 22 23  1  6
 20 24  1  0
 24 25  2  0
 25 26  1  0
 26 27  2  0
 27 28  1  0
 28 29  1  0
 29 30  1  0
 30 31  1  0
 31 32  2  0
 22  4  1  0
 32 24  1  0
 22  8  1  0
 31 27  1  0
 19  9  1  0
 18 12  1  0
  1 33  1  0
  1 34  1  0
  1 35  1  0
  5 36  1  0
  6 37  1  0
  6 38  1  0
  7 39  1  0
  7 40  1  0
  8 41  1  1
  9 42  1  6
 10 43  1  0
 10 44  1  0
 11 45  1  0
 11 46  1  0
 13 47  1  0
 16 48  1  0
 16 49  1  0
 17 50  1  0
 17 51  1  0
 20 52  1  1
 21 53  1  0
 21 54  1  0
 23 55  1  0
 23 56  1  0
 23 57  1  0
 25 58  1  0
 26 59  1  0
 29 60  1  0
 29 61  1  0
 32 62  1  0
M  END
$$$$
