
     RDKit          3D

 41 42  0  0  0  0  0  0  0  0999 V2000
    0.8451   -2.8398   -0.3884 C   0  0  0  0  0  0  0  0  0  0  0  0
    0.7797   -1.3168   -0.5789 C   0  0  2  0  0  0  0  0  0  0  0  0
    1.3874   -1.0140   -1.8134 O   0  0  0  0  0  0  0  0  0  0  0  0
    1.5401   -0.6030    0.5691 C   0  0  0  0  0  0  0  0  0  0  0  0
    2.9165   -0.9912    0.6056 O   0  0  0  0  0  0  0  0  0  0  0  0
    3.9555   -0.4543   -0.1726 C   0  0  0  0  0  0  0  0  0  0  0  0
    5.1695   -1.1514   -0.2142 C   0  0  0  0  0  0  0  0  0  0  0  0
    6.2418   -0.6695   -0.9700 C   0  0  0  0  0  0  0  0  0  0  0  0
    6.1133    0.5219   -1.6896 C   0  0  0  0  0  0  0  0  0  0  0  0
    7.4661    1.1188   -2.6359 Cl  0  0  0  0  0  0  0  0  0  0  0  0
    4.9088    1.2340   -1.6476 C   0  0  0  0  0  0  0  0  0  0  0  0
    4.7766    2.3960   -2.3352 F   0  0  0  0  0  0  0  0  0  0  0  0
    3.8348    0.7526   -0.8910 C   0  0  0  0  0  0  0  0  0  0  0  0
   -0.6797   -0.8876   -0.5973 C   0  0  0  0  0  0  0  0  0  0  0  0
   -1.2246   -0.5903   -1.6962 O   0  0  0  0  0  0  0  0  0  0  0  0
   -1.4665   -0.9025    0.6069 N   0  0  0  0  0  0  0  0  0  0  0  0
   -2.7269   -0.2242    0.7451 C   0  0  0  0  0  0  0  0  0  0  0  0
   -2.9749    0.9980    0.0958 C   0  0  0  0  0  0  0  0  0  0  0  0
   -4.2068    1.6653    0.2528 C   0  0  0  0  0  0  0  0  0  0  0  0
   -5.1898    1.0926    1.0952 C   0  0  0  0  0  0  0  0  0  0  0  0
   -4.9280   -0.1125    1.7582 C   0  0  0  0  0  0  0  0  0  0  0  0
   -3.7050   -0.7611    1.5897 C   0  0  0  0  0  0  0  0  0  0  0  0
   -6.4700    1.7272    1.3041 C   0  0  0  0  0  0  0  0  0  0  0  0
   -7.4961    2.2354    1.4719 N   0  0  0  0  0  0  0  0  0  0  0  0
   -4.4627    2.9799   -0.4581 C   0  0  0  0  0  0  0  0  0  0  0  0
   -3.3896    3.3594   -1.2463 F   0  0  0  0  0  0  0  0  0  0  0  0
   -4.6895    3.9747    0.4758 F   0  0  0  0  0  0  0  0  0  0  0  0
   -5.5751    2.8592   -1.2714 F   0  0  0  0  0  0  0  0  0  0  0  0
    0.2662   -3.3525   -1.1869 H   0  0  0  0  0  0  0  0  0  0  0  0
    0.4309   -3.1404    0.5975 H   0  0  0  0  0  0  0  0  0  0  0  0
    1.8968   -3.1931   -0.4485 H   0  0  0  0  0  0  0  0  0  0  0  0
    1.2934   -0.0375   -1.9692 H   0  0  0  0  0  0  0  0  0  0  0  0
    1.4318    0.4990    0.5033 H   0  0  0  0  0  0  0  0  0  0  0  0
    1.0943   -0.8935    1.5432 H   0  0  0  0  0  0  0  0  0  0  0  0
    5.2797   -2.0759    0.3384 H   0  0  0  0  0  0  0  0  0  0  0  0
    7.1717   -1.2233   -0.9953 H   0  0  0  0  0  0  0  0  0  0  0  0
    2.9270    1.3355   -0.8680 H   0  0  0  0  0  0  0  0  0  0  0  0
   -1.1517   -1.5087    1.3971 H   0  0  0  0  0  0  0  0  0  0  0  0
   -2.1955    1.4377   -0.5112 H   0  0  0  0  0  0  0  0  0  0  0  0
   -5.6731   -0.5525    2.4106 H   0  0  0  0  0  0  0  0  0  0  0  0
   -3.5217   -1.6919    2.1120 H   0  0  0  0  0  0  0  0  0  0  0  0
  1  2  1  0
  2  3  1  6
  2  4  1  0
  4  5  1  0
  5  6  1  0
  6  7  2  0
  7  8  1  0
  8  9  2  0
  9 10  1  0
  9 11  1  0
 11 12  1  0
 11 13  2  0
  2 14  1  0
 14 15  2  0
 14 16  1  0
 16 17  1  0
 17 18  2  0
 18 19  1  0
 19 20  2  0
 20 21  1  0
 21 22  2  0
 20 23  1  0
 23 24  3  0
 19 25  1  0
 25 26  1  0
 25 27  1  0
 25 28  1  0
 13  6  1  0
 22 17  1  0
  1 29  1  0
  1 30  1  0
  1 31  1  0
  3 32  1  0
  4 33  1  0
  4 34  1  0
  7 35  1  0
  8 36  1  0
 13 37  1  0
 16 38  1  0
 18 39  1  0
 21 40  1  0
 22 41  1  0
M  END
$$$$
