
     RDKit          3D

 62 66  0  0  0  0  0  0  0  0999 V2000
   -2.9900   -3.2324    0.6689 N   0  0  0  0  0  0  0  0  0  0  0  0
   -3.4813   -1.8954    0.8266 C   0  0  0  0  0  0  0  0  0  0  0  0
   -4.6074   -1.7424    1.3756 O   0  0  0  0  0  0  0  0  0  0  0  0
   -2.7013   -0.6721    0.3017 C   0  0  0  0  0  0  0  0  0  0  0  0
   -1.1436   -0.9216    0.4811 C   0  0  2  0  0  0  0  0  0  0  0  0
   -0.6837   -1.5073    1.8229 C   0  0  0  0  0  0  0  0  0  0  0  0
    0.5877   -0.7487    2.1885 C   0  0  0  0  0  0  0  0  0  0  0  0
    1.0028    0.0186    1.0048 N   0  0  0  0  0  0  0  0  0  0  0  0
    1.7000    1.2746    1.3492 C   0  0  0  0  0  0  0  0  0  0  0  0
    3.1314    1.0018    1.8288 C   0  0  0  0  0  0  0  0  0  0  0  0
    3.9491    0.3292    0.7569 C   0  0  0  0  0  0  0  0  0  0  0  0
    4.4928    1.0919   -0.2988 C   0  0  0  0  0  0  0  0  0  0  0  0
    5.2121    0.4339   -1.2964 C   0  0  0  0  0  0  0  0  0  0  0  0
    5.3894   -0.9182   -1.2692 C   0  0  0  0  0  0  0  0  0  0  0  0
    6.1233   -1.3520   -2.3509 O   0  0  0  0  0  0  0  0  0  0  0  0
    6.4778   -0.2451   -3.1801 C   0  0  0  0  0  0  0  0  0  0  0  0
    5.8721    1.0068   -2.4982 C   0  0  0  0  0  0  0  0  0  0  0  0
    4.8645   -1.7063   -0.2482 C   0  0  0  0  0  0  0  0  0  0  0  0
    4.1351   -1.0743    0.7721 C   0  0  0  0  0  0  0  0  0  0  0  0
   -0.2183    0.2740    0.2357 C   0  0  0  0  0  0  0  0  0  0  0  0
   -3.2670    0.5750    1.0490 C   0  0  0  0  0  0  0  0  0  0  0  0
   -2.6719    1.1322    2.2057 C   0  0  0  0  0  0  0  0  0  0  0  0
   -3.2570    2.2134    2.8713 C   0  0  0  0  0  0  0  0  0  0  0  0
   -4.4636    2.7460    2.4236 C   0  0  0  0  0  0  0  0  0  0  0  0
   -5.0960    2.1909    1.3143 C   0  0  0  0  0  0  0  0  0  0  0  0
   -4.5158    1.1118    0.6437 C   0  0  0  0  0  0  0  0  0  0  0  0
   -2.9330   -0.4906   -1.2228 C   0  0  0  0  0  0  0  0  0  0  0  0
   -2.6157    0.7435   -1.8400 C   0  0  0  0  0  0  0  0  0  0  0  0
   -2.7716    0.9258   -3.2160 C   0  0  0  0  0  0  0  0  0  0  0  0
   -3.2354   -0.1189   -4.0123 C   0  0  0  0  0  0  0  0  0  0  0  0
   -3.5418   -1.3494   -3.4343 C   0  0  0  0  0  0  0  0  0  0  0  0
   -3.3884   -1.5404   -2.0580 C   0  0  0  0  0  0  0  0  0  0  0  0
   -2.1474   -3.4520    0.0957 H   0  0  0  0  0  0  0  0  0  0  0  0
   -3.5247   -4.0324    1.0743 H   0  0  0  0  0  0  0  0  0  0  0  0
   -0.8397   -1.6699   -0.2875 H   0  0  0  0  0  0  0  0  0  0  0  0
   -1.4466   -1.4185    2.6242 H   0  0  0  0  0  0  0  0  0  0  0  0
   -0.4494   -2.5890    1.7091 H   0  0  0  0  0  0  0  0  0  0  0  0
    1.3900   -1.4632    2.4699 H   0  0  0  0  0  0  0  0  0  0  0  0
    0.3870   -0.0911    3.0639 H   0  0  0  0  0  0  0  0  0  0  0  0
    1.7569    1.9328    0.4525 H   0  0  0  0  0  0  0  0  0  0  0  0
    1.1457    1.8416    2.1310 H   0  0  0  0  0  0  0  0  0  0  0  0
    3.1122    0.3837    2.7524 H   0  0  0  0  0  0  0  0  0  0  0  0
    3.6089    1.9678    2.1020 H   0  0  0  0  0  0  0  0  0  0  0  0
    4.3545    2.1650   -0.3429 H   0  0  0  0  0  0  0  0  0  0  0  0
    7.5839   -0.1633   -3.2432 H   0  0  0  0  0  0  0  0  0  0  0  0
    6.0513   -0.3860   -4.1961 H   0  0  0  0  0  0  0  0  0  0  0  0
    5.1222    1.4980   -3.1546 H   0  0  0  0  0  0  0  0  0  0  0  0
    6.6656    1.7248   -2.1993 H   0  0  0  0  0  0  0  0  0  0  0  0
    5.0118   -2.7783   -0.2435 H   0  0  0  0  0  0  0  0  0  0  0  0
    3.7160   -1.6744    1.5694 H   0  0  0  0  0  0  0  0  0  0  0  0
    0.0391    0.3495   -0.8433 H   0  0  0  0  0  0  0  0  0  0  0  0
   -0.6884    1.2320    0.5390 H   0  0  0  0  0  0  0  0  0  0  0  0
   -1.7458    0.7685    2.6038 H   0  0  0  0  0  0  0  0  0  0  0  0
   -2.7730    2.6366    3.7423 H   0  0  0  0  0  0  0  0  0  0  0  0
   -4.9146    3.5810    2.9440 H   0  0  0  0  0  0  0  0  0  0  0  0
   -6.0442    2.5900    0.9777 H   0  0  0  0  0  0  0  0  0  0  0  0
   -5.0544    0.6860   -0.1933 H   0  0  0  0  0  0  0  0  0  0  0  0
   -2.2540    1.5779   -1.2545 H   0  0  0  0  0  0  0  0  0  0  0  0
   -2.5298    1.8804   -3.6652 H   0  0  0  0  0  0  0  0  0  0  0  0
   -3.3548    0.0240   -5.0786 H   0  0  0  0  0  0  0  0  0  0  0  0
   -3.8973   -2.1616   -4.0554 H   0  0  0  0  0  0  0  0  0  0  0  0
   -3.6363   -2.5141   -1.6674 H   0  0  0  0  0  0  0  0  0  0  0  0
  1  2  1  0
  2  3  2  0
  2  4  1  0
  4  5  1  0
  5  6  1  0
  6  7  1  0
  7  8  1  0
  8  9  1  0
  9 10  1  0
 10 11  1  0
 11 12  2  0
 12 13  1  0
 13 14  2  0
 14 15  1  0
 15 16  1  0
 16 17  1  0
 14 18  1  0
 18 19  2  0
  8 20  1  0
  4 21  1  0
 21 22  2  0
 22 23  1  0
 23 24  2  0
 24 25  1  0
 25 26  2  0
  4 27  1  0
 27 28  2  0
 28 29  1  0
 29 30  2  0
 30 31  1  0
 31 32  2  0
 20  5  1  0
 26 21  1  0
 32 27  1  0
 19 11  1  0
 17 13  1  0
  1 33  1  0
  1 34  1  0
  5 35  1  6
  6 36  1  0
  6 37  1  0
  7 38  1  0
  7 39  1  0
  9 40  1  0
  9 41  1  0
 10 42  1  0
 10 43  1  0
 12 44  1  0
 16 45  1  0
 16 46  1  0
 17 47  1  0
 17 48  1  0
 18 49  1  0
 19 50  1  0
 20 51  1  0
 20 52  1  0
 22 53  1  0
 23 54  1  0
 24 55  1  0
 25 56  1  0
 26 57  1  0
 28 58  1  0
 29 59  1  0
 30 60  1  0
 31 61  1  0
 32 62  1  0
M  END
$$$$
