
     RDKit          3D

 58 61  0  0  0  0  0  0  0  0999 V2000
    7.3614   -0.2856    0.9425 C   0  0  1  0  0  0  0  0  0  0  0  0
    6.6768   -1.4193    0.1619 C   0  0  0  0  0  0  0  0  0  0  0  0
    5.1736   -1.3496    0.2605 C   0  0  0  0  0  0  0  0  0  0  0  0
    4.5245   -1.7482    1.4391 C   0  0  0  0  0  0  0  0  0  0  0  0
    3.1330   -1.6669    1.5403 C   0  0  0  0  0  0  0  0  0  0  0  0
    2.3689   -1.1852    0.4715 C   0  0  0  0  0  0  0  0  0  0  0  0
    0.9766   -1.1222    0.6244 O   0  0  0  0  0  0  0  0  0  0  0  0
    0.0740   -0.6511   -0.3759 C   0  0  0  0  0  0  0  0  0  0  0  0
   -1.3792   -0.7158    0.1301 C   0  0  1  0  0  0  0  0  0  0  0  0
   -1.7558   -2.1792    0.4375 C   0  0  0  0  0  0  0  0  0  0  0  0
   -1.5452    0.1838    1.3729 C   0  0  0  0  0  0  0  0  0  0  0  0
   -3.0157    0.3117    1.7889 C   0  0  0  0  0  0  0  0  0  0  0  0
   -3.9478    0.5788    0.6202 C   0  0  0  0  0  0  0  0  0  0  0  0
   -5.2666    1.0559    0.8298 C   0  0  0  0  0  0  0  0  0  0  0  0
   -5.8150    1.2554    2.2269 C   0  0  0  0  0  0  0  0  0  0  0  0
   -6.0764    1.3725   -0.2870 C   0  0  0  0  0  0  0  0  0  0  0  0
   -7.3304    1.9744   -0.1236 O   0  0  0  0  0  0  0  0  0  0  0  0
   -5.6289    1.0968   -1.5948 C   0  0  0  0  0  0  0  0  0  0  0  0
   -6.5293    1.4025   -2.7719 C   0  0  0  0  0  0  0  0  0  0  0  0
   -4.3233    0.5934   -1.7999 C   0  0  0  0  0  0  0  0  0  0  0  0
   -3.8132    0.3163   -3.1971 C   0  0  0  0  0  0  0  0  0  0  0  0
   -3.5035    0.3104   -0.6921 C   0  0  0  0  0  0  0  0  0  0  0  0
   -2.2262   -0.2288   -0.9102 O   0  0  0  0  0  0  0  0  0  0  0  0
    3.0185   -0.7824   -0.7109 C   0  0  0  0  0  0  0  0  0  0  0  0
    4.4104   -0.8640   -0.8129 C   0  0  0  0  0  0  0  0  0  0  0  0
    9.1807   -0.5727    0.9585 S   0  0  0  0  0  0  0  0  0  0  0  0
    9.4297    0.8983   -0.0217 C   0  0  0  0  0  0  0  0  0  0  0  0
   10.5548    1.2205   -0.4842 O   0  0  0  0  0  0  0  0  0  0  0  0
    8.2745    1.6741   -0.2595 N   0  0  0  0  0  0  0  0  0  0  0  0
    7.1343    1.0549    0.3034 C   0  0  0  0  0  0  0  0  0  0  0  0
    6.0070    1.6165    0.2852 O   0  0  0  0  0  0  0  0  0  0  0  0
    7.0006   -0.2648    1.9934 H   0  0  0  0  0  0  0  0  0  0  0  0
    7.0108   -2.3967    0.5739 H   0  0  0  0  0  0  0  0  0  0  0  0
    7.0012   -1.3931   -0.9023 H   0  0  0  0  0  0  0  0  0  0  0  0
    5.0971   -2.1204    2.2797 H   0  0  0  0  0  0  0  0  0  0  0  0
    2.6450   -1.9782    2.4552 H   0  0  0  0  0  0  0  0  0  0  0  0
    0.3279    0.3993   -0.6400 H   0  0  0  0  0  0  0  0  0  0  0  0
    0.1766   -1.2738   -1.2920 H   0  0  0  0  0  0  0  0  0  0  0  0
   -1.1702   -2.5661    1.2987 H   0  0  0  0  0  0  0  0  0  0  0  0
   -1.5548   -2.8221   -0.4461 H   0  0  0  0  0  0  0  0  0  0  0  0
   -2.8363   -2.2701    0.6741 H   0  0  0  0  0  0  0  0  0  0  0  0
   -1.1593    1.2022    1.1430 H   0  0  0  0  0  0  0  0  0  0  0  0
   -0.9557   -0.2144    2.2278 H   0  0  0  0  0  0  0  0  0  0  0  0
   -3.3368   -0.6183    2.3048 H   0  0  0  0  0  0  0  0  0  0  0  0
   -3.0774    1.1480    2.5184 H   0  0  0  0  0  0  0  0  0  0  0  0
   -5.2732    0.6658    2.9919 H   0  0  0  0  0  0  0  0  0  0  0  0
   -5.7667    2.3309    2.4974 H   0  0  0  0  0  0  0  0  0  0  0  0
   -6.8653    0.9017    2.2854 H   0  0  0  0  0  0  0  0  0  0  0  0
   -7.6852    2.3107    0.7617 H   0  0  0  0  0  0  0  0  0  0  0  0
   -6.4694    0.5965   -3.5325 H   0  0  0  0  0  0  0  0  0  0  0  0
   -7.5968    1.4712   -2.4775 H   0  0  0  0  0  0  0  0  0  0  0  0
   -6.2247    2.3660   -3.2315 H   0  0  0  0  0  0  0  0  0  0  0  0
   -2.7089    0.2158   -3.2323 H   0  0  0  0  0  0  0  0  0  0  0  0
   -4.0726    1.1518   -3.8802 H   0  0  0  0  0  0  0  0  0  0  0  0
   -4.2646   -0.6241   -3.5767 H   0  0  0  0  0  0  0  0  0  0  0  0
    2.4588   -0.4034   -1.5548 H   0  0  0  0  0  0  0  0  0  0  0  0
    4.8933   -0.5429   -1.7276 H   0  0  0  0  0  0  0  0  0  0  0  0
    8.2646    2.5833   -0.7732 H   0  0  0  0  0  0  0  0  0  0  0  0
  1  2  1  0
  2  3  1  0
  3  4  2  0
  4  5  1  0
  5  6  2  0
  6  7  1  0
  7  8  1  0
  9  8  1  6
  9 10  1  0
  9 11  1  0
 11 12  1  0
 12 13  1  0
 13 14  2  0
 14 15  1  0
 14 16  1  0
 16 17  1  0
 16 18  2  0
 18 19  1  0
 18 20  1  0
 20 21  1  0
 20 22  2  0
 22 23  1  0
  6 24  1  0
 24 25  2  0
  1 26  1  0
 26 27  1  0
 27 28  2  0
 27 29  1  0
 29 30  1  0
 30 31  2  0
 30  1  1  0
 25  3  1  0
 23  9  1  0
 22 13  1  0
  1 32  1  1
  2 33  1  0
  2 34  1  0
  4 35  1  0
  5 36  1  0
  8 37  1  0
  8 38  1  0
 10 39  1  0
 10 40  1  0
 10 41  1  0
 11 42  1  0
 11 43  1  0
 12 44  1  0
 12 45  1  0
 15 46  1  0
 15 47  1  0
 15 48  1  0
 17 49  1  0
 19 50  1  0
 19 51  1  0
 19 52  1  0
 21 53  1  0
 21 54  1  0
 21 55  1  0
 24 56  1  0
 25 57  1  0
 29 58  1  0
M  END
$$$$
