
     RDKit          3D

 41 42  0  0  0  0  0  0  0  0999 V2000
   -2.0114   -0.4480    2.0548 C   0  0  0  0  0  0  0  0  0  0  0  0
   -2.0805    0.5149    1.0260 O   0  0  0  0  0  0  0  0  0  0  0  0
   -2.4483   -0.0914   -0.2048 C   0  0  1  0  0  0  0  0  0  0  0  0
   -3.9818    0.0428   -0.4232 C   0  0  0  0  0  0  0  0  0  0  0  0
   -4.3617    1.1271   -1.3474 N   0  0  0  0  0  0  0  0  0  0  0  0
   -3.5482    2.3298   -1.1366 C   0  0  0  0  0  0  0  0  0  0  0  0
   -2.0612    2.0821   -1.4613 C   0  0  0  0  0  0  0  0  0  0  0  0
   -1.6688    0.5910   -1.3460 C   0  0  1  0  0  0  0  0  0  0  0  0
   -0.2228    0.4463   -1.1370 N   0  0  0  0  0  0  0  0  0  0  0  0
    0.4457   -0.8184   -1.2632 C   0  0  0  0  0  0  0  0  0  0  0  0
   -0.1197   -1.7689   -1.8700 O   0  0  0  0  0  0  0  0  0  0  0  0
    1.8085   -1.0128   -0.7173 C   0  0  0  0  0  0  0  0  0  0  0  0
    2.7188   -1.8174   -1.4208 C   0  0  0  0  0  0  0  0  0  0  0  0
    4.0165   -2.0200   -0.9433 C   0  0  0  0  0  0  0  0  0  0  0  0
    5.1058   -3.0291   -1.8878 Cl  0  0  0  0  0  0  0  0  0  0  0  0
    4.4214   -1.4198    0.2629 C   0  0  0  0  0  0  0  0  0  0  0  0
    5.7463   -1.6044    0.7782 N   0  0  0  0  0  0  0  0  0  0  0  0
    3.5102   -0.6315    0.9791 C   0  0  0  0  0  0  0  0  0  0  0  0
    2.1988   -0.4292    0.5067 C   0  0  0  0  0  0  0  0  0  0  0  0
    1.2617    0.3192    1.2390 O   0  0  0  0  0  0  0  0  0  0  0  0
    1.5195    0.9445    2.4916 C   0  0  0  0  0  0  0  0  0  0  0  0
   -1.8178    0.0725    3.0149 H   0  0  0  0  0  0  0  0  0  0  0  0
   -1.1699   -1.1532    1.8766 H   0  0  0  0  0  0  0  0  0  0  0  0
   -2.9695   -1.0045    2.1565 H   0  0  0  0  0  0  0  0  0  0  0  0
   -2.1904   -1.1786   -0.2398 H   0  0  0  0  0  0  0  0  0  0  0  0
   -4.3757   -0.9177   -0.8232 H   0  0  0  0  0  0  0  0  0  0  0  0
   -4.4936    0.2067    0.5496 H   0  0  0  0  0  0  0  0  0  0  0  0
   -4.2424    0.8014   -2.3358 H   0  0  0  0  0  0  0  0  0  0  0  0
   -3.9356    3.1507   -1.7777 H   0  0  0  0  0  0  0  0  0  0  0  0
   -3.6537    2.6654   -0.0806 H   0  0  0  0  0  0  0  0  0  0  0  0
   -1.4513    2.7022   -0.7681 H   0  0  0  0  0  0  0  0  0  0  0  0
   -1.8439    2.4284   -2.4954 H   0  0  0  0  0  0  0  0  0  0  0  0
   -1.9371    0.0936   -2.3056 H   0  0  0  0  0  0  0  0  0  0  0  0
    0.3572    1.2906   -0.9285 H   0  0  0  0  0  0  0  0  0  0  0  0
    2.4241   -2.2784   -2.3562 H   0  0  0  0  0  0  0  0  0  0  0  0
    6.4575   -2.1833    0.2807 H   0  0  0  0  0  0  0  0  0  0  0  0
    6.0338   -1.1554    1.6763 H   0  0  0  0  0  0  0  0  0  0  0  0
    3.8302   -0.1866    1.9116 H   0  0  0  0  0  0  0  0  0  0  0  0
    1.7960    0.1814    3.2493 H   0  0  0  0  0  0  0  0  0  0  0  0
    0.6006    1.4648    2.8311 H   0  0  0  0  0  0  0  0  0  0  0  0
    2.3324    1.6932    2.3847 H   0  0  0  0  0  0  0  0  0  0  0  0
  1  2  1  0
  2  3  1  0
  3  4  1  0
  4  5  1  0
  5  6  1  0
  6  7  1  0
  7  8  1  0
  8  9  1  0
  9 10  1  0
 10 11  2  0
 10 12  1  0
 12 13  2  0
 13 14  1  0
 14 15  1  0
 14 16  2  0
 16 17  1  0
 16 18  1  0
 18 19  2  0
 19 20  1  0
 20 21  1  0
  8  3  1  0
 19 12  1  0
  1 22  1  0
  1 23  1  0
  1 24  1  0
  3 25  1  1
  4 26  1  0
  4 27  1  0
  5 28  1  0
  6 29  1  0
  6 30  1  0
  7 31  1  0
  7 32  1  0
  8 33  1  6
  9 34  1  0
 13 35  1  0
 17 36  1  0
 17 37  1  0
 18 38  1  0
 21 39  1  0
 21 40  1  0
 21 41  1  0
M  END
$$$$
