
     RDKit          3D

 33 34  0  0  0  0  0  0  0  0999 V2000
    4.2878    0.0774    0.6514 C   0  0  0  0  0  0  0  0  0  0  0  0
    3.4023   -1.1615    0.4712 C   0  0  0  0  0  0  0  0  0  0  0  0
    3.5326   -1.7393   -0.9125 C   0  0  0  0  0  0  0  0  0  0  0  0
    3.6657   -0.9045   -2.0194 O   0  0  0  0  0  0  0  0  0  0  0  0
    3.4760   -2.9876   -1.0763 O   0  0  0  0  0  0  0  0  0  0  0  0
    1.9528   -0.8485    0.7848 C   0  0  0  0  0  0  0  0  0  0  0  0
    1.2213    0.0647    0.0005 C   0  0  0  0  0  0  0  0  0  0  0  0
   -0.1246    0.3473    0.2911 C   0  0  0  0  0  0  0  0  0  0  0  0
   -0.7292   -0.2722    1.3981 C   0  0  0  0  0  0  0  0  0  0  0  0
   -0.0096   -1.1760    2.1816 C   0  0  0  0  0  0  0  0  0  0  0  0
    1.3218   -1.4656    1.8779 C   0  0  0  0  0  0  0  0  0  0  0  0
   -0.8720    1.3243   -0.5376 C   0  0  0  0  0  0  0  0  0  0  0  0
   -0.2469    2.2964   -1.0435 O   0  0  0  0  0  0  0  0  0  0  0  0
   -2.3277    1.1992   -0.7931 C   0  0  0  0  0  0  0  0  0  0  0  0
   -2.9395   -0.0643   -0.8984 C   0  0  0  0  0  0  0  0  0  0  0  0
   -4.3097   -0.1672   -1.1574 C   0  0  0  0  0  0  0  0  0  0  0  0
   -5.0801    0.9859   -1.3243 C   0  0  0  0  0  0  0  0  0  0  0  0
   -4.4805    2.2445   -1.2382 C   0  0  0  0  0  0  0  0  0  0  0  0
   -3.1105    2.3529   -0.9797 C   0  0  0  0  0  0  0  0  0  0  0  0
    3.9925    0.8911   -0.0446 H   0  0  0  0  0  0  0  0  0  0  0  0
    5.3507   -0.1845    0.4610 H   0  0  0  0  0  0  0  0  0  0  0  0
    4.2040    0.4538    1.6934 H   0  0  0  0  0  0  0  0  0  0  0  0
    3.7806   -1.9260    1.1869 H   0  0  0  0  0  0  0  0  0  0  0  0
    3.7345   -1.2880   -2.9544 H   0  0  0  0  0  0  0  0  0  0  0  0
    1.6970    0.5462   -0.8448 H   0  0  0  0  0  0  0  0  0  0  0  0
   -1.7533   -0.0463    1.6673 H   0  0  0  0  0  0  0  0  0  0  0  0
   -0.4840   -1.6492    3.0317 H   0  0  0  0  0  0  0  0  0  0  0  0
    1.8607   -2.1684    2.5011 H   0  0  0  0  0  0  0  0  0  0  0  0
   -2.3572   -0.9712   -0.7961 H   0  0  0  0  0  0  0  0  0  0  0  0
   -4.7733   -1.1422   -1.2348 H   0  0  0  0  0  0  0  0  0  0  0  0
   -6.1403    0.9040   -1.5257 H   0  0  0  0  0  0  0  0  0  0  0  0
   -5.0774    3.1374   -1.3726 H   0  0  0  0  0  0  0  0  0  0  0  0
   -2.6643    3.3376   -0.9141 H   0  0  0  0  0  0  0  0  0  0  0  0
  1  2  1  0
  2  3  1  0
  3  4  1  0
  3  5  2  0
  2  6  1  0
  6  7  2  0
  7  8  1  0
  8  9  2  0
  9 10  1  0
 10 11  2  0
  8 12  1  0
 12 13  2  0
 12 14  1  0
 14 15  2  0
 15 16  1  0
 16 17  2  0
 17 18  1  0
 18 19  2  0
 11  6  1  0
 19 14  1  0
  1 20  1  0
  1 21  1  0
  1 22  1  0
  2 23  1  0
  4 24  1  0
  7 25  1  0
  9 26  1  0
 10 27  1  0
 11 28  1  0
 15 29  1  0
 16 30  1  0
 17 31  1  0
 18 32  1  0
 19 33  1  0
M  END
$$$$
