
     RDKit          3D

 42 45  0  0  0  0  0  0  0  0999 V2000
   -6.2302   -0.6339   -3.2687 N   0  0  0  0  0  0  0  0  0  0  0  0
   -6.0215    0.7149   -2.2083 S   0  0  0  0  0  6  0  0  0  0  0  0
   -5.4548    1.8750   -2.9779 O   0  0  0  0  0  0  0  0  0  0  0  0
   -7.3544    1.1183   -1.6428 O   0  0  0  0  0  0  0  0  0  0  0  0
   -4.9260    0.2758   -0.9012 C   0  0  0  0  0  0  0  0  0  0  0  0
   -3.5418    0.4301   -1.0615 C   0  0  0  0  0  0  0  0  0  0  0  0
   -2.6607    0.0829   -0.0259 C   0  0  0  0  0  0  0  0  0  0  0  0
   -1.2449    0.2318   -0.2256 N   0  0  0  0  0  0  0  0  0  0  0  0
   -0.3195    0.6049    0.8051 C   0  0  0  0  0  0  0  0  0  0  0  0
    1.0164    0.5084    0.5715 N   0  0  0  0  0  0  0  0  0  0  0  0
    1.9299    0.8866    1.5074 C   0  0  0  0  0  0  0  0  0  0  0  0
    3.3354    0.7582    1.2466 N   0  0  0  0  0  0  0  0  0  0  0  0
    3.8505    0.3571   -0.0301 C   0  0  0  0  0  0  0  0  0  0  0  0
    3.5869    1.0838   -1.2196 C   0  0  0  0  0  0  0  0  0  0  0  0
    2.6657    2.5821   -1.1958 Cl  0  0  0  0  0  0  0  0  0  0  0  0
    4.1261    0.6419   -2.4504 C   0  0  0  0  0  0  0  0  0  0  0  0
    4.9360   -0.5062   -2.5052 C   0  0  0  0  0  0  0  0  0  0  0  0
    5.1921   -1.1775   -1.3145 C   0  0  0  0  0  0  0  0  0  0  0  0
    4.6775   -0.7624   -0.1291 C   0  0  0  0  0  0  0  0  0  0  0  0
    5.0955   -1.6154    0.8750 O   0  0  0  0  0  0  0  0  0  0  0  0
    5.9237   -2.6263    0.2841 C   0  0  0  0  0  0  0  0  0  0  0  0
    5.9584   -2.3094   -1.1142 O   0  0  0  0  0  0  0  0  0  0  0  0
    1.4864    1.3789    2.7384 C   0  0  0  0  0  0  0  0  0  0  0  0
    0.1143    1.4842    2.9595 C   0  0  0  0  0  0  0  0  0  0  0  0
   -0.7595    1.1033    1.9927 N   0  0  0  0  0  0  0  0  0  0  0  0
   -3.1791   -0.4656    1.1608 C   0  0  0  0  0  0  0  0  0  0  0  0
   -4.5580   -0.6283    1.3179 C   0  0  0  0  0  0  0  0  0  0  0  0
   -5.4303   -0.2573    0.2920 C   0  0  0  0  0  0  0  0  0  0  0  0
   -5.2799   -0.9063   -3.6063 H   0  0  0  0  0  0  0  0  0  0  0  0
   -6.5817   -1.4273   -2.6870 H   0  0  0  0  0  0  0  0  0  0  0  0
   -3.1474    0.8275   -1.9885 H   0  0  0  0  0  0  0  0  0  0  0  0
   -0.8727    0.1445   -1.1986 H   0  0  0  0  0  0  0  0  0  0  0  0
    3.9973    0.7818    2.0553 H   0  0  0  0  0  0  0  0  0  0  0  0
    3.9288    1.1968   -3.3587 H   0  0  0  0  0  0  0  0  0  0  0  0
    5.3562   -0.8503   -3.4410 H   0  0  0  0  0  0  0  0  0  0  0  0
    5.4733   -3.6291    0.4387 H   0  0  0  0  0  0  0  0  0  0  0  0
    6.9470   -2.5817    0.7125 H   0  0  0  0  0  0  0  0  0  0  0  0
    2.1884    1.6813    3.5052 H   0  0  0  0  0  0  0  0  0  0  0  0
   -0.2570    1.8713    3.8989 H   0  0  0  0  0  0  0  0  0  0  0  0
   -2.5202   -0.7943    1.9534 H   0  0  0  0  0  0  0  0  0  0  0  0
   -4.9507   -1.0534    2.2326 H   0  0  0  0  0  0  0  0  0  0  0  0
   -6.4956   -0.3967    0.4242 H   0  0  0  0  0  0  0  0  0  0  0  0
  1  2  1  0
  2  3  2  0
  2  4  2  0
  2  5  1  0
  5  6  2  0
  6  7  1  0
  7  8  1  0
  8  9  1  0
  9 10  2  0
 10 11  1  0
 11 12  1  0
 12 13  1  0
 13 14  2  0
 14 15  1  0
 14 16  1  0
 16 17  2  0
 17 18  1  0
 18 19  2  0
 19 20  1  0
 20 21  1  0
 21 22  1  0
 11 23  2  0
 23 24  1  0
 24 25  2  0
  7 26  2  0
 26 27  1  0
 27 28  2  0
 28  5  1  0
 25  9  1  0
 19 13  1  0
 22 18  1  0
  1 29  1  0
  1 30  1  0
  6 31  1  0
  8 32  1  0
 12 33  1  0
 16 34  1  0
 17 35  1  0
 21 36  1  0
 21 37  1  0
 23 38  1  0
 24 39  1  0
 26 40  1  0
 27 41  1  0
 28 42  1  0
M  END
$$$$
