
     RDKit          3D

 46 49  0  0  0  0  0  0  0  0999 V2000
   -2.4454    4.9272    0.1918 C   0  0  0  0  0  0  0  0  0  0  0  0
   -1.2105    4.3320    0.5763 O   0  0  0  0  0  0  0  0  0  0  0  0
   -0.9694    2.9503    0.5968 C   0  0  0  0  0  0  0  0  0  0  0  0
    0.3051    2.5061    0.9975 C   0  0  0  0  0  0  0  0  0  0  0  0
    0.5464    1.1374    1.0191 C   0  0  0  0  0  0  0  0  0  0  0  0
   -0.4068    0.2301    0.6662 C   0  0  0  0  0  0  0  0  0  0  0  0
    0.1066   -0.9681    0.7607 O   0  0  0  0  0  0  0  0  0  0  0  0
    1.3501   -0.7913    1.1696 C   0  0  0  0  0  0  0  0  0  0  0  0
    2.2551   -1.8757    1.3859 N   0  0  0  0  0  0  0  0  0  0  0  0
    3.8855   -1.6102    1.9101 S   0  0  0  0  0  6  0  0  0  0  0  0
    3.8580   -0.7648    3.1528 O   0  0  0  0  0  0  0  0  0  0  0  0
    4.5140   -2.9371    2.2296 O   0  0  0  0  0  0  0  0  0  0  0  0
    4.8332   -0.8115    0.6479 C   0  0  0  0  0  0  0  0  0  0  0  0
    4.3001   -0.6878   -0.6459 C   0  0  0  0  0  0  0  0  0  0  0  0
    5.0282   -0.0518   -1.6559 C   0  0  0  0  0  0  0  0  0  0  0  0
    4.3448    0.1052   -3.2638 Cl  0  0  0  0  0  0  0  0  0  0  0  0
    6.3002    0.4570   -1.3850 C   0  0  0  0  0  0  0  0  0  0  0  0
    6.8476    0.3260   -0.1074 C   0  0  0  0  0  0  0  0  0  0  0  0
    6.1254   -0.3076    0.9114 C   0  0  0  0  0  0  0  0  0  0  0  0
    6.8829   -0.4626    2.4929 Cl  0  0  0  0  0  0  0  0  0  0  0  0
    1.6888    0.5121    1.3499 N   0  0  0  0  0  0  0  0  0  0  0  0
   -1.6914    0.6108    0.2630 C   0  0  0  0  0  0  0  0  0  0  0  0
   -1.9641    1.9995    0.2295 C   0  0  0  0  0  0  0  0  0  0  0  0
   -2.7196   -0.3883   -0.1190 C   0  0  0  0  0  0  0  0  0  0  0  0
   -3.5648   -0.1642   -1.2189 C   0  0  0  0  0  0  0  0  0  0  0  0
   -4.5042   -1.0852   -1.5617 N   0  0  0  0  0  0  0  0  0  0  0  0
   -4.6672   -2.2430   -0.8630 C   0  0  0  0  0  0  0  0  0  0  0  0
   -5.6418   -3.1737   -1.2345 O   0  0  0  0  0  0  0  0  0  0  0  0
   -6.5098   -2.9774   -2.3445 C   0  0  0  0  0  0  0  0  0  0  0  0
   -3.8520   -2.5057    0.2395 C   0  0  0  0  0  0  0  0  0  0  0  0
   -2.8784   -1.5774    0.6115 C   0  0  0  0  0  0  0  0  0  0  0  0
   -2.6878    4.6595   -0.8583 H   0  0  0  0  0  0  0  0  0  0  0  0
   -2.3544    6.0303    0.2651 H   0  0  0  0  0  0  0  0  0  0  0  0
   -3.2584    4.5920    0.8700 H   0  0  0  0  0  0  0  0  0  0  0  0
    1.0786    3.2098    1.2779 H   0  0  0  0  0  0  0  0  0  0  0  0
    1.9312   -2.8533    1.2156 H   0  0  0  0  0  0  0  0  0  0  0  0
    3.3214   -1.0854   -0.8776 H   0  0  0  0  0  0  0  0  0  0  0  0
    6.8677    0.9491   -2.1646 H   0  0  0  0  0  0  0  0  0  0  0  0
    7.8381    0.7160    0.0900 H   0  0  0  0  0  0  0  0  0  0  0  0
   -2.9495    2.3345   -0.0638 H   0  0  0  0  0  0  0  0  0  0  0  0
   -3.4679    0.7330   -1.8163 H   0  0  0  0  0  0  0  0  0  0  0  0
   -5.9171   -2.8856   -3.2793 H   0  0  0  0  0  0  0  0  0  0  0  0
   -7.1895   -3.8494   -2.4343 H   0  0  0  0  0  0  0  0  0  0  0  0
   -7.1185   -2.0608   -2.1939 H   0  0  0  0  0  0  0  0  0  0  0  0
   -3.9753   -3.4198    0.8061 H   0  0  0  0  0  0  0  0  0  0  0  0
   -2.2653   -1.7801    1.4804 H   0  0  0  0  0  0  0  0  0  0  0  0
  1  2  1  0
  2  3  1  0
  3  4  2  0
  4  5  1  0
  5  6  2  0
  6  7  1  0
  7  8  1  0
  8  9  1  0
  9 10  1  0
 10 11  2  0
 10 12  2  0
 10 13  1  0
 13 14  2  0
 14 15  1  0
 15 16  1  0
 15 17  2  0
 17 18  1  0
 18 19  2  0
 19 20  1  0
  8 21  2  0
  6 22  1  0
 22 23  2  0
 22 24  1  0
 24 25  2  0
 25 26  1  0
 26 27  2  0
 27 28  1  0
 28 29  1  0
 27 30  1  0
 30 31  2  0
 23  3  1  0
 31 24  1  0
 21  5  1  0
 19 13  1  0
  1 32  1  0
  1 33  1  0
  1 34  1  0
  4 35  1  0
  9 36  1  0
 14 37  1  0
 17 38  1  0
 18 39  1  0
 23 40  1  0
 25 41  1  0
 29 42  1  0
 29 43  1  0
 29 44  1  0
 30 45  1  0
 31 46  1  0
M  END
$$$$
