
     RDKit          3D

 79 81  0  0  0  0  0  0  0  0999 V2000
   -2.8039   -4.8083    0.0597 C   0  0  0  0  0  0  0  0  0  0  0  0
   -2.2368   -3.4920   -0.2540 N   0  0  0  0  0  0  0  0  0  0  0  0
   -3.1553   -2.3895    0.1107 C   0  0  1  0  0  0  0  0  0  0  0  0
   -3.3582   -2.3353    1.6589 C   0  0  2  0  0  0  0  0  0  0  0  0
   -4.4656   -3.1110    2.0472 O   0  0  0  0  0  0  0  0  0  0  0  0
   -3.4984   -0.8874    2.1719 C   0  0  1  0  0  0  0  0  0  0  0  0
   -3.5882   -0.8743    3.5742 O   0  0  0  0  0  0  0  0  0  0  0  0
   -2.2610   -0.0570    1.7245 C   0  0  2  0  0  0  0  0  0  0  0  0
   -2.5917    1.4379    1.6157 C   0  0  0  0  0  0  0  0  0  0  0  0
   -1.4381    2.1531    1.2742 O   0  0  0  0  0  0  0  0  0  0  0  0
   -1.6547   -0.5234    0.5225 O   0  0  0  0  0  0  0  0  0  0  0  0
   -2.6137   -1.0213   -0.3960 C   0  0  1  0  0  0  0  0  0  0  0  0
   -2.0327   -1.1622   -1.6783 O   0  0  0  0  0  0  0  0  0  0  0  0
   -1.5615    0.0814   -2.1795 C   0  0  1  0  0  0  0  0  0  0  0  0
   -0.0324    0.1283   -2.1623 C   0  0  2  0  0  0  0  0  0  0  0  0
    0.4091    0.8734   -1.0429 O   0  0  0  0  0  0  0  0  0  0  0  0
    1.7921    0.6681   -0.7872 C   0  0  1  0  0  0  0  0  0  0  0  0
    2.5135    2.0498   -0.7809 C   0  0  2  0  0  0  0  0  0  0  0  0
    3.8007    1.9325   -1.3357 O   0  0  0  0  0  0  0  0  0  0  0  0
    2.6370    2.6479    0.6327 C   0  0  1  0  0  0  0  0  0  0  0  0
    1.3508    2.9356    1.1190 O   0  0  0  0  0  0  0  0  0  0  0  0
    3.3851    1.6963    1.6188 C   0  0  2  0  0  0  0  0  0  0  0  0
    4.7911    2.1037    1.7540 N   0  0  0  0  0  0  0  0  0  0  0  0
    5.1965    3.2573    2.5074 C   0  0  0  0  0  0  0  0  0  0  0  0
    6.5827    3.5984    2.5868 N   0  0  0  0  0  0  0  0  0  0  0  0
    4.3139    3.9865    3.1154 N   0  0  0  0  0  0  0  0  0  0  0  0
    3.2958    0.2000    1.2120 C   0  0  1  0  0  0  0  0  0  0  0  0
    3.4783   -0.5931    2.3583 O   0  0  0  0  0  0  0  0  0  0  0  0
    1.9328   -0.0999    0.5570 C   0  0  2  0  0  0  0  0  0  0  0  0
    1.7816   -1.5433    0.3244 N   0  0  0  0  0  0  0  0  0  0  0  0
    1.0263   -2.4425    1.1584 C   0  0  0  0  0  0  0  0  0  0  0  0
    0.7073   -3.7437    0.6669 N   0  0  0  0  0  0  0  0  0  0  0  0
    0.6667   -2.1224    2.3632 N   0  0  0  0  0  0  0  0  0  0  0  0
    0.4275    0.7374   -3.3536 O   0  0  0  0  0  0  0  0  0  0  0  0
   -0.7056    1.1049   -4.1046 C   0  0  1  0  0  0  0  0  0  0  0  0
   -0.3904    1.0121   -5.5996 C   0  0  0  0  0  0  0  0  0  0  0  0
   -1.8775    0.2220   -3.6538 C   0  0  1  0  0  0  0  0  0  0  0  0
   -1.8287   -1.0477   -4.2710 O   0  0  0  0  0  0  0  0  0  0  0  0
   -3.2268    0.8780   -3.8680 C   0  0  0  0  0  0  0  0  0  0  0  0
   -4.2469    0.3258   -3.4868 O   0  0  0  0  0  0  0  0  0  0  0  0
   -3.8333   -4.9117   -0.3486 H   0  0  0  0  0  0  0  0  0  0  0  0
   -2.1688   -5.6009   -0.3908 H   0  0  0  0  0  0  0  0  0  0  0  0
   -2.8108   -4.9787    1.1559 H   0  0  0  0  0  0  0  0  0  0  0  0
   -2.1022   -3.4909   -1.2915 H   0  0  0  0  0  0  0  0  0  0  0  0
   -4.1368   -2.5480   -0.3938 H   0  0  0  0  0  0  0  0  0  0  0  0
   -2.4561   -2.7633    2.1517 H   0  0  0  0  0  0  0  0  0  0  0  0
   -5.2762   -2.6972    1.6500 H   0  0  0  0  0  0  0  0  0  0  0  0
   -4.4226   -0.4408    1.7317 H   0  0  0  0  0  0  0  0  0  0  0  0
   -4.5264   -1.1012    3.8066 H   0  0  0  0  0  0  0  0  0  0  0  0
   -1.4896   -0.1584    2.5193 H   0  0  0  0  0  0  0  0  0  0  0  0
   -3.3751    1.6040    0.8435 H   0  0  0  0  0  0  0  0  0  0  0  0
   -2.9767    1.8018    2.5947 H   0  0  0  0  0  0  0  0  0  0  0  0
   -1.7129    3.1041    1.2053 H   0  0  0  0  0  0  0  0  0  0  0  0
   -3.4840   -0.3265   -0.4880 H   0  0  0  0  0  0  0  0  0  0  0  0
   -1.9643    0.9743   -1.6345 H   0  0  0  0  0  0  0  0  0  0  0  0
    0.3472   -0.9212   -2.1285 H   0  0  0  0  0  0  0  0  0  0  0  0
    2.2956    0.0647   -1.5833 H   0  0  0  0  0  0  0  0  0  0  0  0
    1.9255    2.7698   -1.3995 H   0  0  0  0  0  0  0  0  0  0  0  0
    3.6875    1.8797   -2.3209 H   0  0  0  0  0  0  0  0  0  0  0  0
    3.1976    3.6077    0.5337 H   0  0  0  0  0  0  0  0  0  0  0  0
    1.4609    3.5874    1.8600 H   0  0  0  0  0  0  0  0  0  0  0  0
    2.9048    1.7880    2.6200 H   0  0  0  0  0  0  0  0  0  0  0  0
    5.5417    1.5255    1.3128 H   0  0  0  0  0  0  0  0  0  0  0  0
    7.2992    3.0165    2.0992 H   0  0  0  0  0  0  0  0  0  0  0  0
    6.9000    4.4321    3.1299 H   0  0  0  0  0  0  0  0  0  0  0  0
    4.5845    4.8294    3.6695 H   0  0  0  0  0  0  0  0  0  0  0  0
    4.0936   -0.0310    0.4652 H   0  0  0  0  0  0  0  0  0  0  0  0
    3.8501   -1.4631    2.0571 H   0  0  0  0  0  0  0  0  0  0  0  0
    1.1268    0.2598    1.2323 H   0  0  0  0  0  0  0  0  0  0  0  0
    2.2953   -1.9659   -0.4818 H   0  0  0  0  0  0  0  0  0  0  0  0
    0.1829   -4.4225    1.2628 H   0  0  0  0  0  0  0  0  0  0  0  0
    0.9779   -4.0264   -0.3009 H   0  0  0  0  0  0  0  0  0  0  0  0
    0.8897   -1.2120    2.8183 H   0  0  0  0  0  0  0  0  0  0  0  0
   -0.9309    2.1722   -3.8734 H   0  0  0  0  0  0  0  0  0  0  0  0
   -1.2952    1.2478   -6.1991 H   0  0  0  0  0  0  0  0  0  0  0  0
   -0.0252   -0.0031   -5.8633 H   0  0  0  0  0  0  0  0  0  0  0  0
    0.4033    1.7446   -5.8582 H   0  0  0  0  0  0  0  0  0  0  0  0
   -2.1969   -0.9614   -5.1894 H   0  0  0  0  0  0  0  0  0  0  0  0
   -3.3010    1.8388   -4.3677 H   0  0  0  0  0  0  0  0  0  0  0  0
  1  2  1  0
  2  3  1  0
  3  4  1  0
  4  5  1  0
  4  6  1  0
  6  7  1  0
  6  8  1  0
  8  9  1  0
  9 10  1  0
  8 11  1  0
 11 12  1  0
 12 13  1  0
 13 14  1  0
 14 15  1  0
 15 16  1  0
 16 17  1  0
 17 18  1  0
 18 19  1  0
 18 20  1  0
 20 21  1  0
 20 22  1  0
 22 23  1  0
 23 24  1  0
 24 25  1  0
 24 26  2  3
 22 27  1  0
 27 28  1  0
 27 29  1  0
 29 30  1  0
 30 31  1  0
 31 32  1  0
 31 33  2  3
 15 34  1  0
 34 35  1  0
 35 36  1  0
 35 37  1  0
 37 38  1  6
 37 39  1  0
 39 40  2  0
 12  3  1  0
 37 14  1  0
 29 17  1  0
  1 41  1  0
  1 42  1  0
  1 43  1  0
  2 44  1  0
  3 45  1  6
  4 46  1  1
  5 47  1  0
  6 48  1  6
  7 49  1  0
  8 50  1  1
  9 51  1  0
  9 52  1  0
 10 53  1  0
 12 54  1  6
 14 55  1  1
 15 56  1  1
 17 57  1  6
 18 58  1  6
 19 59  1  0
 20 60  1  6
 21 61  1  0
 22 62  1  1
 23 63  1  0
 25 64  1  0
 25 65  1  0
 26 66  1  0
 27 67  1  6
 28 68  1  0
 29 69  1  1
 30 70  1  0
 32 71  1  0
 32 72  1  0
 33 73  1  0
 35 74  1  1
 36 75  1  0
 36 76  1  0
 36 77  1  0
 38 78  1  0
 39 79  1  0
M  END
$$$$
