
     RDKit          3D

 63 67  0  0  0  0  0  0  0  0999 V2000
   -1.6698   -0.2938   -0.9170 C   0  0  2  0  0  0  0  0  0  0  0  0
   -0.4348    0.0952   -0.1968 N   0  0  0  0  0  0  0  0  0  0  0  0
    0.3429    1.2355   -0.6353 C   0  0  0  0  0  0  0  0  0  0  0  0
   -0.1200    2.0096   -1.5183 O   0  0  0  0  0  0  0  0  0  0  0  0
    1.7174    1.5363   -0.0708 C   0  0  2  0  0  0  0  0  0  0  0  0
    1.7348    2.9099    0.6394 C   0  0  0  0  0  0  0  0  0  0  0  0
    2.4362    3.8913   -0.3094 C   0  0  0  0  0  0  0  0  0  0  0  0
    3.0435    3.0052   -1.3236 C   0  0  0  0  0  0  0  0  0  0  0  0
    3.7293    3.4322   -2.2898 O   0  0  0  0  0  0  0  0  0  0  0  0
    2.6866    1.6408   -1.1541 N   0  0  0  0  0  0  0  0  0  0  0  0
    3.1763    0.5073   -1.8992 C   0  0  0  0  0  0  0  0  0  0  0  0
    2.4356   -0.6360   -1.9340 N   0  0  0  0  0  0  0  0  0  0  0  0
    2.8448   -1.7485   -2.5977 C   0  0  0  0  0  0  0  0  0  0  0  0
    4.0662   -1.7501   -3.2705 C   0  0  0  0  0  0  0  0  0  0  0  0
    4.8630   -0.6021   -3.2412 C   0  0  0  0  0  0  0  0  0  0  0  0
    4.4238    0.5321   -2.5480 C   0  0  0  0  0  0  0  0  0  0  0  0
    6.1372   -0.5916   -3.9111 C   0  0  0  0  0  0  0  0  0  0  0  0
    7.1614   -0.5831   -4.4496 N   0  0  0  0  0  0  0  0  0  0  0  0
   -0.0502   -0.6078    1.0001 C   0  0  0  0  0  0  0  0  0  0  0  0
   -0.3231   -0.0656    2.2626 C   0  0  0  0  0  0  0  0  0  0  0  0
    0.0858   -0.7403    3.4139 C   0  0  0  0  0  0  0  0  0  0  0  0
   -0.1842   -0.2283    4.6397 F   0  0  0  0  0  0  0  0  0  0  0  0
    0.7853   -1.9427    3.2904 C   0  0  0  0  0  0  0  0  0  0  0  0
    1.0722   -2.4396    2.0579 N   0  0  0  0  0  0  0  0  0  0  0  0
    0.6821   -1.8016    0.9224 C   0  0  0  0  0  0  0  0  0  0  0  0
   -2.9092    0.0471   -0.1126 C   0  0  0  0  0  0  0  0  0  0  0  0
   -3.9522   -0.6538   -0.2319 O   0  0  0  0  0  0  0  0  0  0  0  0
   -2.9484    1.2381    0.6860 N   0  0  0  0  0  0  0  0  0  0  0  0
   -4.0744    1.5234    1.5792 C   0  0  0  0  0  0  0  0  0  0  0  0
   -4.1144    0.5815    2.7820 C   0  0  0  0  0  0  0  0  0  0  0  0
   -3.8630    1.7650    3.7057 C   0  0  0  0  0  0  0  0  0  0  0  0
   -4.9260    2.0215    4.5552 F   0  0  0  0  0  0  0  0  0  0  0  0
   -2.6533    1.6804    4.3741 F   0  0  0  0  0  0  0  0  0  0  0  0
   -3.8166    2.7085    2.5117 C   0  0  0  0  0  0  0  0  0  0  0  0
   -1.5942   -1.7554   -1.3547 C   0  0  0  0  0  0  0  0  0  0  0  0
   -1.0467   -2.1117   -2.6125 C   0  0  0  0  0  0  0  0  0  0  0  0
   -0.4782   -0.9088   -3.7678 Cl  0  0  0  0  0  0  0  0  0  0  0  0
   -0.9261   -3.4605   -2.9690 C   0  0  0  0  0  0  0  0  0  0  0  0
   -1.3267   -4.4644   -2.0872 C   0  0  0  0  0  0  0  0  0  0  0  0
   -1.8430   -4.1289   -0.8369 C   0  0  0  0  0  0  0  0  0  0  0  0
   -1.9689   -2.7885   -0.4677 C   0  0  0  0  0  0  0  0  0  0  0  0
   -1.7844    0.3203   -1.8320 H   0  0  0  0  0  0  0  0  0  0  0  0
    2.0582    0.7538    0.6385 H   0  0  0  0  0  0  0  0  0  0  0  0
    2.3243    2.8279    1.5792 H   0  0  0  0  0  0  0  0  0  0  0  0
    0.7152    3.2687    0.9046 H   0  0  0  0  0  0  0  0  0  0  0  0
    3.2155    4.4813    0.2189 H   0  0  0  0  0  0  0  0  0  0  0  0
    1.6968    4.5646   -0.7937 H   0  0  0  0  0  0  0  0  0  0  0  0
    2.2202   -2.6319   -2.6018 H   0  0  0  0  0  0  0  0  0  0  0  0
    4.3899   -2.6386   -3.7992 H   0  0  0  0  0  0  0  0  0  0  0  0
    5.0642    1.4015   -2.4942 H   0  0  0  0  0  0  0  0  0  0  0  0
   -0.8395    0.8797    2.3535 H   0  0  0  0  0  0  0  0  0  0  0  0
    1.1105   -2.4759    4.1736 H   0  0  0  0  0  0  0  0  0  0  0  0
    0.9419   -2.2222   -0.0397 H   0  0  0  0  0  0  0  0  0  0  0  0
   -2.1760    1.9344    0.5892 H   0  0  0  0  0  0  0  0  0  0  0  0
   -5.0434    1.5945    1.0372 H   0  0  0  0  0  0  0  0  0  0  0  0
   -5.1194    0.1288    2.9274 H   0  0  0  0  0  0  0  0  0  0  0  0
   -3.2859   -0.1605    2.7997 H   0  0  0  0  0  0  0  0  0  0  0  0
   -4.6584    3.4348    2.5086 H   0  0  0  0  0  0  0  0  0  0  0  0
   -2.8205    3.1868    2.3872 H   0  0  0  0  0  0  0  0  0  0  0  0
   -0.5109   -3.7332   -3.9310 H   0  0  0  0  0  0  0  0  0  0  0  0
   -1.2257   -5.5044   -2.3694 H   0  0  0  0  0  0  0  0  0  0  0  0
   -2.1358   -4.9093   -0.1465 H   0  0  0  0  0  0  0  0  0  0  0  0
   -2.3378   -2.5591    0.5239 H   0  0  0  0  0  0  0  0  0  0  0  0
  1  2  1  0
  2  3  1  0
  3  4  2  0
  3  5  1  0
  5  6  1  0
  6  7  1  0
  7  8  1  0
  8  9  2  0
  8 10  1  0
 10 11  1  0
 11 12  2  0
 12 13  1  0
 13 14  2  0
 14 15  1  0
 15 16  2  0
 15 17  1  0
 17 18  3  0
  2 19  1  0
 19 20  2  0
 20 21  1  0
 21 22  1  0
 21 23  2  0
 23 24  1  0
 24 25  2  0
  1 26  1  0
 26 27  2  0
 26 28  1  0
 28 29  1  0
 29 30  1  0
 30 31  1  0
 31 32  1  0
 31 33  1  0
 31 34  1  0
  1 35  1  0
 35 36  2  0
 36 37  1  0
 36 38  1  0
 38 39  2  0
 39 40  1  0
 40 41  2  0
 10  5  1  0
 16 11  1  0
 25 19  1  0
 34 29  1  0
 41 35  1  0
  1 42  1  6
  5 43  1  1
  6 44  1  0
  6 45  1  0
  7 46  1  0
  7 47  1  0
 13 48  1  0
 14 49  1  0
 16 50  1  0
 20 51  1  0
 23 52  1  0
 25 53  1  0
 28 54  1  0
 29 55  1  0
 30 56  1  0
 30 57  1  0
 34 58  1  0
 34 59  1  0
 38 60  1  0
 39 61  1  0
 40 62  1  0
 41 63  1  0
M  END
$$$$
