
     RDKit          3D

 33 33  0  0  0  0  0  0  0  0999 V2000
   -1.9964    0.8436    1.0293 C   0  0  2  0  0  0  0  0  0  0  0  0
   -0.9824   -0.0979    1.2939 O   0  0  0  0  0  0  0  0  0  0  0  0
   -2.2122   -0.6199    0.8472 C   0  0  2  0  0  0  0  0  0  0  0  0
   -2.0662   -1.2280   -0.5203 C   0  0  0  0  0  0  0  0  0  0  0  0
   -2.8280   -0.8912   -1.4140 O   0  0  0  0  0  0  0  0  0  0  0  0
   -1.0702   -2.3306   -0.7671 C   0  0  0  0  0  0  0  0  0  0  0  0
   -0.0422   -1.9490   -1.8411 C   0  0  0  0  0  0  0  0  0  0  0  0
    0.9330   -0.9071   -1.3610 C   0  0  0  0  0  0  0  0  0  0  0  0
    1.8902   -1.2019   -0.4677 C   0  0  0  0  0  0  0  0  0  0  0  0
    2.9351   -0.1959   -0.0707 C   0  0  0  0  0  0  0  0  0  0  0  0
    2.3547    0.8897    0.7911 C   0  0  0  0  0  0  0  0  0  0  0  0
    1.9585    0.6492    2.0485 C   0  0  0  0  0  0  0  0  0  0  0  0
    1.3997    1.7442    2.9031 C   0  0  0  0  0  0  0  0  0  0  0  0
   -1.6679    1.6813   -0.1701 C   0  0  0  0  0  0  0  0  0  0  0  0
   -2.7079    2.1171   -1.0434 N   0  0  0  0  0  0  0  0  0  0  0  0
   -0.4811    2.0464   -0.3806 O   0  0  0  0  0  0  0  0  0  0  0  0
   -2.3583    1.3235    1.9620 H   0  0  0  0  0  0  0  0  0  0  0  0
   -2.7229   -1.1871    1.6527 H   0  0  0  0  0  0  0  0  0  0  0  0
   -1.6255   -3.2301   -1.1097 H   0  0  0  0  0  0  0  0  0  0  0  0
   -0.5523   -2.6073    0.1770 H   0  0  0  0  0  0  0  0  0  0  0  0
   -0.5667   -1.5706   -2.7453 H   0  0  0  0  0  0  0  0  0  0  0  0
    0.5207   -2.8577   -2.1469 H   0  0  0  0  0  0  0  0  0  0  0  0
    0.8970    0.0829   -1.8068 H   0  0  0  0  0  0  0  0  0  0  0  0
    1.9514   -2.2036   -0.0510 H   0  0  0  0  0  0  0  0  0  0  0  0
    3.3806    0.2534   -0.9844 H   0  0  0  0  0  0  0  0  0  0  0  0
    3.7513   -0.7079    0.4833 H   0  0  0  0  0  0  0  0  0  0  0  0
    2.2826    1.8946    0.3838 H   0  0  0  0  0  0  0  0  0  0  0  0
    2.0362   -0.3529    2.4617 H   0  0  0  0  0  0  0  0  0  0  0  0
    0.4962    2.1772    2.4247 H   0  0  0  0  0  0  0  0  0  0  0  0
    1.1187    1.3371    3.8967 H   0  0  0  0  0  0  0  0  0  0  0  0
    2.1606    2.5408    3.0427 H   0  0  0  0  0  0  0  0  0  0  0  0
   -2.4860    2.7103   -1.8734 H   0  0  0  0  0  0  0  0  0  0  0  0
   -3.7002    1.8476   -0.8618 H   0  0  0  0  0  0  0  0  0  0  0  0
  1  2  1  0
  2  3  1  0
  3  4  1  0
  4  5  2  0
  4  6  1  0
  6  7  1  0
  7  8  1  0
  8  9  2  0
  9 10  1  0
 10 11  1  0
 11 12  2  0
 12 13  1  0
  1 14  1  0
 14 15  1  0
 14 16  2  0
  3  1  1  0
  1 17  1  1
  3 18  1  1
  6 19  1  0
  6 20  1  0
  7 21  1  0
  7 22  1  0
  8 23  1  0
  9 24  1  0
 10 25  1  0
 10 26  1  0
 11 27  1  0
 12 28  1  0
 13 29  1  0
 13 30  1  0
 13 31  1  0
 15 32  1  0
 15 33  1  0
M  END
$$$$
