
     RDKit          3D

 68 71  0  0  0  0  0  0  0  0999 V2000
   -0.6702   -0.5243    0.6503 C   0  0  2  0  0  0  0  0  0  0  0  0
   -0.1294   -1.3201    1.8298 C   0  0  0  0  0  0  0  0  0  0  0  0
    1.3968   -1.3196    1.6217 C   0  0  0  0  0  0  0  0  0  0  0  0
    1.7004   -0.3762    0.4192 C   0  0  2  0  0  0  0  0  0  0  0  0
    1.7888   -1.1812   -0.7380 O   0  0  0  0  0  0  0  0  0  0  0  0
    3.0223    0.3825    0.5964 C   0  0  0  0  0  0  0  0  0  0  0  0
    3.1377    1.5115    0.1427 O   0  0  0  0  0  0  0  0  0  0  0  0
    4.2336   -0.2634    1.2213 C   0  0  0  0  0  0  0  0  0  0  0  0
    5.3808   -0.0823    0.3940 O   0  0  0  0  0  0  0  0  0  0  0  0
    5.5912   -0.7924   -0.7931 C   0  0  0  0  0  0  0  0  0  0  0  0
    4.7815   -1.6856   -1.1633 O   0  0  0  0  0  0  0  0  0  0  0  0
    6.8231   -0.5253   -1.6017 C   0  0  0  0  0  0  0  0  0  0  0  0
    7.9576   -1.4863   -1.2312 C   0  0  0  0  0  0  0  0  0  0  0  0
    8.4465   -1.2496    0.1651 C   0  0  0  0  0  0  0  0  0  0  0  0
    7.9333   -2.0026    1.2165 O   0  0  0  0  0  0  0  0  0  0  0  0
    9.2933   -0.3446    0.3927 O   0  0  0  0  0  0  0  0  0  0  0  0
    0.4154    0.5285    0.3751 C   0  0  2  0  0  0  0  0  0  0  0  0
    0.5115    1.6202    1.5022 C   0  0  0  0  0  0  0  0  0  0  0  0
    0.1028    1.1855   -0.9994 C   0  0  0  0  0  0  0  0  0  0  0  0
   -1.3392    1.7539   -1.1025 C   0  0  2  0  0  0  0  0  0  0  0  0
   -1.4250    3.0100   -0.4787 O   0  0  0  0  0  0  0  0  0  0  0  0
   -2.4453    0.7264   -0.6493 C   0  0  1  0  0  0  0  0  0  0  0  0
   -2.1125    0.0413    0.7226 C   0  0  1  0  0  0  0  0  0  0  0  0
   -3.1099   -1.1021    1.0179 C   0  0  0  0  0  0  0  0  0  0  0  0
   -4.5636   -0.6099    0.9962 C   0  0  2  0  0  0  0  0  0  0  0  0
   -5.5107   -1.7513    1.4066 C   0  0  0  0  0  0  0  0  0  0  0  0
   -4.8440    0.0307   -0.3627 C   0  0  0  0  0  0  0  0  0  0  0  0
   -5.7782   -0.4596   -1.2048 C   0  0  0  0  0  0  0  0  0  0  0  0
   -5.9781    0.1106   -2.5359 C   0  0  0  0  0  0  0  0  0  0  0  0
   -6.8671   -0.3542   -3.2969 O   0  0  0  0  0  0  0  0  0  0  0  0
   -5.1386    1.2145   -2.9823 C   0  0  0  0  0  0  0  0  0  0  0  0
   -4.2025    1.7176   -2.1812 C   0  0  0  0  0  0  0  0  0  0  0  0
   -3.9426    1.2198   -0.7584 C   0  0  2  0  0  0  0  0  0  0  0  0
   -4.2787    2.4028    0.1824 C   0  0  0  0  0  0  0  0  0  0  0  0
   -0.6790   -1.2427   -0.2065 H   0  0  0  0  0  0  0  0  0  0  0  0
   -0.3928   -0.8198    2.7877 H   0  0  0  0  0  0  0  0  0  0  0  0
   -0.5304   -2.3571    1.8335 H   0  0  0  0  0  0  0  0  0  0  0  0
    1.7595   -2.3517    1.4193 H   0  0  0  0  0  0  0  0  0  0  0  0
    1.8844   -0.9644    2.5563 H   0  0  0  0  0  0  0  0  0  0  0  0
    2.1698   -0.6349   -1.4748 H   0  0  0  0  0  0  0  0  0  0  0  0
    4.0771   -1.3467    1.4089 H   0  0  0  0  0  0  0  0  0  0  0  0
    4.4243    0.2274    2.1982 H   0  0  0  0  0  0  0  0  0  0  0  0
    7.1496    0.5264   -1.4491 H   0  0  0  0  0  0  0  0  0  0  0  0
    6.5828   -0.6479   -2.6800 H   0  0  0  0  0  0  0  0  0  0  0  0
    7.6136   -2.5386   -1.3341 H   0  0  0  0  0  0  0  0  0  0  0  0
    8.8012   -1.3394   -1.9398 H   0  0  0  0  0  0  0  0  0  0  0  0
    8.2394   -1.8418    2.1686 H   0  0  0  0  0  0  0  0  0  0  0  0
    1.1426    1.2891    2.3526 H   0  0  0  0  0  0  0  0  0  0  0  0
   -0.4518    1.8833    1.9639 H   0  0  0  0  0  0  0  0  0  0  0  0
    0.9632    2.5559    1.1111 H   0  0  0  0  0  0  0  0  0  0  0  0
    0.2029    0.4317   -1.8090 H   0  0  0  0  0  0  0  0  0  0  0  0
    0.8391    1.9876   -1.2217 H   0  0  0  0  0  0  0  0  0  0  0  0
   -1.4899    1.9412   -2.1866 H   0  0  0  0  0  0  0  0  0  0  0  0
   -1.6467    2.8745    0.4729 H   0  0  0  0  0  0  0  0  0  0  0  0
   -2.3717   -0.0915   -1.4057 H   0  0  0  0  0  0  0  0  0  0  0  0
   -2.2042    0.7675    1.5502 H   0  0  0  0  0  0  0  0  0  0  0  0
   -2.8901   -1.5236    2.0233 H   0  0  0  0  0  0  0  0  0  0  0  0
   -2.9854   -1.9179    0.2703 H   0  0  0  0  0  0  0  0  0  0  0  0
   -4.6775    0.1700    1.7787 H   0  0  0  0  0  0  0  0  0  0  0  0
   -5.4142   -2.6171    0.7166 H   0  0  0  0  0  0  0  0  0  0  0  0
   -5.2641   -2.0978    2.4330 H   0  0  0  0  0  0  0  0  0  0  0  0
   -6.5625   -1.3941    1.4181 H   0  0  0  0  0  0  0  0  0  0  0  0
   -6.4003   -1.3017   -0.9396 H   0  0  0  0  0  0  0  0  0  0  0  0
   -5.2850    1.6355   -3.9695 H   0  0  0  0  0  0  0  0  0  0  0  0
   -3.6390    2.5659   -2.5490 H   0  0  0  0  0  0  0  0  0  0  0  0
   -5.3806    2.5387    0.2440 H   0  0  0  0  0  0  0  0  0  0  0  0
   -3.8993    2.2470    1.2110 H   0  0  0  0  0  0  0  0  0  0  0  0
   -3.8663    3.3619   -0.1943 H   0  0  0  0  0  0  0  0  0  0  0  0
  1  2  1  0
  2  3  1  0
  3  4  1  0
  4  5  1  6
  4  6  1  0
  6  7  2  0
  6  8  1  0
  8  9  1  0
  9 10  1  0
 10 11  2  0
 10 12  1  0
 12 13  1  0
 13 14  1  0
 14 15  1  0
 14 16  2  0
  4 17  1  0
 17 18  1  1
 17 19  1  0
 19 20  1  0
 20 21  1  0
 20 22  1  0
 22 23  1  0
 23 24  1  0
 24 25  1  0
 25 26  1  0
 25 27  1  0
 27 28  2  0
 28 29  1  0
 29 30  2  0
 29 31  1  0
 31 32  2  0
 32 33  1  0
 33 34  1  1
 17  1  1  0
 33 22  1  0
 23  1  1  0
 33 27  1  0
  1 35  1  6
  2 36  1  0
  2 37  1  0
  3 38  1  0
  3 39  1  0
  5 40  1  0
  8 41  1  0
  8 42  1  0
 12 43  1  0
 12 44  1  0
 13 45  1  0
 13 46  1  0
 15 47  1  0
 18 48  1  0
 18 49  1  0
 18 50  1  0
 19 51  1  0
 19 52  1  0
 20 53  1  6
 21 54  1  0
 22 55  1  6
 23 56  1  1
 24 57  1  0
 24 58  1  0
 25 59  1  1
 26 60  1  0
 26 61  1  0
 26 62  1  0
 28 63  1  0
 31 64  1  0
 32 65  1  0
 34 66  1  0
 34 67  1  0
 34 68  1  0
M  END
$$$$
