
     RDKit          3D

 44 46  0  0  0  0  0  0  0  0999 V2000
    0.0215   -0.8854   -1.1527 C   0  0  1  0  0  0  0  0  0  0  0  0
    0.6460   -2.2531   -1.4573 C   0  0  0  0  0  0  0  0  0  0  0  0
   -1.2841   -0.7084   -1.9667 C   0  0  0  0  0  0  0  0  0  0  0  0
   -2.1244    0.4957   -1.4957 C   0  0  0  0  0  0  0  0  0  0  0  0
   -2.2659    0.6227    0.0688 C   0  0  2  0  0  0  0  0  0  0  0  0
   -3.7567    0.8326    0.4390 C   0  0  0  0  0  0  0  0  0  0  0  0
   -4.5082   -0.3095    0.1268 O   0  0  0  0  0  0  0  0  0  0  0  0
   -1.4529    1.8675    0.5426 C   0  0  0  0  0  0  0  0  0  0  0  0
   -0.0750    1.7525    0.2256 O   0  0  0  0  0  0  0  0  0  0  0  0
    0.4989    0.6350    0.8867 C   0  0  2  0  0  0  0  0  0  0  0  0
    2.0046    0.6021    0.6895 C   0  0  0  0  0  0  0  0  0  0  0  0
    2.6395    1.3478   -0.3240 C   0  0  0  0  0  0  0  0  0  0  0  0
    4.0255    1.2776   -0.4922 C   0  0  0  0  0  0  0  0  0  0  0  0
    4.7968    0.4655    0.3437 C   0  0  0  0  0  0  0  0  0  0  0  0
    6.1767    0.4055    0.1629 O   0  0  0  0  0  0  0  0  0  0  0  0
    4.1756   -0.2798    1.3534 C   0  0  0  0  0  0  0  0  0  0  0  0
    2.7902   -0.2125    1.5247 C   0  0  0  0  0  0  0  0  0  0  0  0
   -0.1678   -0.6877    0.3984 C   0  0  1  0  0  0  0  0  0  0  0  0
   -1.6724   -0.6469    0.7614 C   0  0  1  0  0  0  0  0  0  0  0  0
   -1.9220   -0.7492    2.2841 C   0  0  0  0  0  0  0  0  0  0  0  0
    0.7299   -0.1296   -1.5509 H   0  0  0  0  0  0  0  0  0  0  0  0
    1.6373   -2.3366   -0.9623 H   0  0  0  0  0  0  0  0  0  0  0  0
    0.7953   -2.3743   -2.5516 H   0  0  0  0  0  0  0  0  0  0  0  0
   -0.0102   -3.0711   -1.0900 H   0  0  0  0  0  0  0  0  0  0  0  0
   -1.0344   -0.5757   -3.0425 H   0  0  0  0  0  0  0  0  0  0  0  0
   -1.9064   -1.6281   -1.9005 H   0  0  0  0  0  0  0  0  0  0  0  0
   -1.6762    1.4162   -1.9310 H   0  0  0  0  0  0  0  0  0  0  0  0
   -3.1212    0.4054   -1.9807 H   0  0  0  0  0  0  0  0  0  0  0  0
   -3.8607    1.0622    1.5231 H   0  0  0  0  0  0  0  0  0  0  0  0
   -4.1602    1.7056   -0.1232 H   0  0  0  0  0  0  0  0  0  0  0  0
   -5.4433   -0.1048    0.3885 H   0  0  0  0  0  0  0  0  0  0  0  0
   -1.5859    2.0659    1.6284 H   0  0  0  0  0  0  0  0  0  0  0  0
   -1.8443    2.7736    0.0316 H   0  0  0  0  0  0  0  0  0  0  0  0
    0.3542    0.7482    1.9845 H   0  0  0  0  0  0  0  0  0  0  0  0
    2.0680    1.9784   -0.9926 H   0  0  0  0  0  0  0  0  0  0  0  0
    4.5009    1.8538   -1.2758 H   0  0  0  0  0  0  0  0  0  0  0  0
    6.7632   -0.1739    0.7521 H   0  0  0  0  0  0  0  0  0  0  0  0
    4.7648   -0.9124    2.0050 H   0  0  0  0  0  0  0  0  0  0  0  0
    2.3273   -0.7981    2.3095 H   0  0  0  0  0  0  0  0  0  0  0  0
    0.2973   -1.5358    0.9501 H   0  0  0  0  0  0  0  0  0  0  0  0
   -2.1577   -1.5580    0.3462 H   0  0  0  0  0  0  0  0  0  0  0  0
   -1.6522    0.1731    2.8321 H   0  0  0  0  0  0  0  0  0  0  0  0
   -1.3378   -1.5923    2.7098 H   0  0  0  0  0  0  0  0  0  0  0  0
   -2.9934   -0.9640    2.4803 H   0  0  0  0  0  0  0  0  0  0  0  0
  1  2  1  0
  1  3  1  0
  3  4  1  0
  4  5  1  0
  5  6  1  6
  6  7  1  0
  5  8  1  0
  8  9  1  0
  9 10  1  0
 10 11  1  0
 11 12  2  0
 12 13  1  0
 13 14  2  0
 14 15  1  0
 14 16  1  0
 16 17  2  0
 10 18  1  0
 18 19  1  0
 19 20  1  0
 18  1  1  0
 19  5  1  0
 17 11  1  0
  1 21  1  6
  2 22  1  0
  2 23  1  0
  2 24  1  0
  3 25  1  0
  3 26  1  0
  4 27  1  0
  4 28  1  0
  6 29  1  0
  6 30  1  0
  7 31  1  0
  8 32  1  0
  8 33  1  0
 10 34  1  1
 12 35  1  0
 13 36  1  0
 15 37  1  0
 16 38  1  0
 17 39  1  0
 18 40  1  1
 19 41  1  6
 20 42  1  0
 20 43  1  0
 20 44  1  0
M  END
$$$$
