
     RDKit          3D

 74 77  0  0  0  0  0  0  0  0999 V2000
   -1.8432    4.0078    3.1190 C   0  0  0  0  0  0  0  0  0  0  0  0
   -2.7031    3.2417    2.1155 C   0  0  0  0  0  0  0  0  0  0  0  0
   -3.1355    4.1686    0.9744 C   0  0  0  0  0  0  0  0  0  0  0  0
   -1.9387    2.1480    1.6028 O   0  0  0  0  0  0  0  0  0  0  0  0
   -2.4404    1.0412    0.8933 C   0  0  0  0  0  0  0  0  0  0  0  0
   -1.5240    0.1352    0.3454 C   0  0  0  0  0  0  0  0  0  0  0  0
   -0.1137    0.3422    0.5386 N   0  0  0  0  0  0  0  0  0  0  0  0
    0.8722    0.1172   -0.4823 C   0  0  0  0  0  0  0  0  0  0  0  0
    0.4935   -0.0716   -1.7747 N   0  0  0  0  0  0  0  0  0  0  0  0
    1.4089   -0.2752   -2.7532 C   0  0  0  0  0  0  0  0  0  0  0  0
    2.7677   -0.2801   -2.4462 C   0  0  0  0  0  0  0  0  0  0  0  0
    3.9442   -0.5412   -3.7280 Cl  0  0  0  0  0  0  0  0  0  0  0  0
    3.1591   -0.0545   -1.1187 C   0  0  0  0  0  0  0  0  0  0  0  0
    2.1970    0.1275   -0.1607 N   0  0  0  0  0  0  0  0  0  0  0  0
    4.4308   -0.0578   -0.8243 N   0  0  0  0  0  0  0  0  0  0  0  0
    5.0229    0.2490    0.4476 C   0  0  0  0  0  0  0  0  0  0  0  0
    4.7457    1.4777    1.0725 C   0  0  0  0  0  0  0  0  0  0  0  0
    5.3614    1.8130    2.2796 C   0  0  0  0  0  0  0  0  0  0  0  0
    6.2764    0.9368    2.8632 C   0  0  0  0  0  0  0  0  0  0  0  0
    6.5828   -0.2735    2.2379 C   0  0  0  0  0  0  0  0  0  0  0  0
    5.9688   -0.6256    1.0253 C   0  0  0  0  0  0  0  0  0  0  0  0
    6.4053   -2.1628    0.2621 S   0  0  0  0  0  6  0  0  0  0  0  0
    6.7711   -3.1554    1.3305 O   0  0  0  0  0  0  0  0  0  0  0  0
    5.2326   -2.7153   -0.4992 O   0  0  0  0  0  0  0  0  0  0  0  0
    7.8015   -1.9596   -0.8474 C   0  0  0  0  0  0  0  0  0  0  0  0
    9.0195   -1.4253   -0.0901 C   0  0  0  0  0  0  0  0  0  0  0  0
    7.4404   -1.0366   -2.0125 C   0  0  0  0  0  0  0  0  0  0  0  0
   -1.9898   -0.9925   -0.3418 C   0  0  0  0  0  0  0  0  0  0  0  0
   -3.3628   -1.2307   -0.5177 C   0  0  0  0  0  0  0  0  0  0  0  0
   -3.7395   -2.4568   -1.3132 C   0  0  0  0  0  0  0  0  0  0  0  0
   -4.3044   -0.2885   -0.0066 C   0  0  0  0  0  0  0  0  0  0  0  0
   -3.8175    0.8216    0.7149 C   0  0  0  0  0  0  0  0  0  0  0  0
   -5.8240   -0.4187   -0.1441 C   0  0  0  0  0  0  0  0  0  0  0  0
   -6.4045   -1.5601    0.7260 C   0  0  0  0  0  0  0  0  0  0  0  0
   -7.6897   -2.1405    0.1192 C   0  0  0  0  0  0  0  0  0  0  0  0
   -8.4944   -1.0644   -0.4701 N   0  0  0  0  0  0  0  0  0  0  0  0
   -7.8608   -0.4943   -1.6759 C   0  0  0  0  0  0  0  0  0  0  0  0
   -6.3163   -0.4665   -1.6056 C   0  0  0  0  0  0  0  0  0  0  0  0
   -0.9275    4.4007    2.6271 H   0  0  0  0  0  0  0  0  0  0  0  0
   -2.4166    4.8553    3.5522 H   0  0  0  0  0  0  0  0  0  0  0  0
   -1.5393    3.3307    3.9454 H   0  0  0  0  0  0  0  0  0  0  0  0
   -3.5955    2.8670    2.6614 H   0  0  0  0  0  0  0  0  0  0  0  0
   -2.2456    4.5562    0.4338 H   0  0  0  0  0  0  0  0  0  0  0  0
   -3.7177    5.0253    1.3757 H   0  0  0  0  0  0  0  0  0  0  0  0
   -3.7758    3.6252    0.2501 H   0  0  0  0  0  0  0  0  0  0  0  0
    0.2064    0.7542    1.4442 H   0  0  0  0  0  0  0  0  0  0  0  0
    1.0770   -0.4311   -3.7712 H   0  0  0  0  0  0  0  0  0  0  0  0
    2.4535    0.2412    0.8443 H   0  0  0  0  0  0  0  0  0  0  0  0
    4.0577    2.1787    0.6166 H   0  0  0  0  0  0  0  0  0  0  0  0
    5.1362    2.7575    2.7578 H   0  0  0  0  0  0  0  0  0  0  0  0
    6.7572    1.2002    3.7965 H   0  0  0  0  0  0  0  0  0  0  0  0
    7.3085   -0.9331    2.6964 H   0  0  0  0  0  0  0  0  0  0  0  0
    8.0570   -2.9596   -1.2599 H   0  0  0  0  0  0  0  0  0  0  0  0
    9.8972   -1.3739   -0.7691 H   0  0  0  0  0  0  0  0  0  0  0  0
    8.8201   -0.4089    0.3108 H   0  0  0  0  0  0  0  0  0  0  0  0
    9.2739   -2.1020    0.7529 H   0  0  0  0  0  0  0  0  0  0  0  0
    7.1886   -0.0188   -1.6464 H   0  0  0  0  0  0  0  0  0  0  0  0
    8.2956   -0.9600   -2.7173 H   0  0  0  0  0  0  0  0  0  0  0  0
    6.5727   -1.4482   -2.5683 H   0  0  0  0  0  0  0  0  0  0  0  0
   -1.2723   -1.7072   -0.7265 H   0  0  0  0  0  0  0  0  0  0  0  0
   -4.7107   -2.8865   -1.0128 H   0  0  0  0  0  0  0  0  0  0  0  0
   -2.9894   -3.2636   -1.1684 H   0  0  0  0  0  0  0  0  0  0  0  0
   -3.7638   -2.2015   -2.3931 H   0  0  0  0  0  0  0  0  0  0  0  0
   -4.5241    1.5190    1.1393 H   0  0  0  0  0  0  0  0  0  0  0  0
   -6.2872    0.5137    0.2545 H   0  0  0  0  0  0  0  0  0  0  0  0
   -5.6759   -2.3791    0.8926 H   0  0  0  0  0  0  0  0  0  0  0  0
   -6.6384   -1.1517    1.7342 H   0  0  0  0  0  0  0  0  0  0  0  0
   -8.2728   -2.6463    0.9193 H   0  0  0  0  0  0  0  0  0  0  0  0
   -7.4403   -2.9046   -0.6518 H   0  0  0  0  0  0  0  0  0  0  0  0
   -9.4222   -1.4634   -0.7456 H   0  0  0  0  0  0  0  0  0  0  0  0
   -8.1746   -1.0645   -2.5795 H   0  0  0  0  0  0  0  0  0  0  0  0
   -8.2312    0.5460   -1.7986 H   0  0  0  0  0  0  0  0  0  0  0  0
   -5.9450   -1.3654   -2.1285 H   0  0  0  0  0  0  0  0  0  0  0  0
   -5.9356    0.4188   -2.1605 H   0  0  0  0  0  0  0  0  0  0  0  0
  1  2  1  0
  2  3  1  0
  2  4  1  0
  4  5  1  0
  5  6  2  0
  6  7  1  0
  7  8  1  0
  8  9  2  0
  9 10  1  0
 10 11  2  0
 11 12  1  0
 11 13  1  0
 13 14  1  0
 13 15  2  3
 15 16  1  0
 16 17  2  0
 17 18  1  0
 18 19  2  0
 19 20  1  0
 20 21  2  0
 21 22  1  0
 22 23  2  0
 22 24  2  0
 22 25  1  0
 25 26  1  0
 25 27  1  0
  6 28  1  0
 28 29  2  0
 29 30  1  0
 29 31  1  0
 31 32  2  0
 31 33  1  0
 33 34  1  0
 34 35  1  0
 35 36  1  0
 36 37  1  0
 37 38  1  0
 32  5  1  0
 38 33  1  0
 14  8  1  0
 21 16  1  0
  1 39  1  0
  1 40  1  0
  1 41  1  0
  2 42  1  0
  3 43  1  0
  3 44  1  0
  3 45  1  0
  7 46  1  0
 10 47  1  0
 14 48  1  0
 17 49  1  0
 18 50  1  0
 19 51  1  0
 20 52  1  0
 25 53  1  0
 26 54  1  0
 26 55  1  0
 26 56  1  0
 27 57  1  0
 27 58  1  0
 27 59  1  0
 28 60  1  0
 30 61  1  0
 30 62  1  0
 30 63  1  0
 32 64  1  0
 33 65  1  0
 34 66  1  0
 34 67  1  0
 35 68  1  0
 35 69  1  0
 36 70  1  0
 37 71  1  0
 37 72  1  0
 38 73  1  0
 38 74  1  0
M  END
$$$$
