
     RDKit          3D

 26 25  0  0  0  0  0  0  0  0999 V2000
   -3.8788    1.0625   -0.4190 N   0  0  0  0  0  0  0  0  0  0  0  0
   -2.7833    0.2270    0.0775 C   0  0  2  0  0  0  0  0  0  0  0  0
   -1.4276    0.6962   -0.4947 C   0  0  0  0  0  0  0  0  0  0  0  0
   -0.2407   -0.0250    0.1622 C   0  0  0  0  0  0  0  0  0  0  0  0
    1.0924    0.4942   -0.3868 C   0  0  0  0  0  0  0  0  0  0  0  0
    2.2199   -0.1979    0.2392 N   0  0  0  0  0  0  0  0  0  0  0  0
    3.5796    0.1038   -0.1029 C   0  0  0  0  0  0  0  0  0  0  0  0
    4.6444   -0.6023    0.5389 N   0  0  0  0  0  0  0  0  0  0  0  0
    3.8444    1.0118   -0.9894 N   0  0  0  0  0  0  0  0  0  0  0  0
   -3.0565   -1.2114   -0.2640 C   0  0  0  0  0  0  0  0  0  0  0  0
   -3.0963   -2.1665    0.7472 O   0  0  0  0  0  0  0  0  0  0  0  0
   -3.2354   -1.5590   -1.4626 O   0  0  0  0  0  0  0  0  0  0  0  0
   -3.7490    2.0350   -0.0558 H   0  0  0  0  0  0  0  0  0  0  0  0
   -3.8341    1.1134   -1.4634 H   0  0  0  0  0  0  0  0  0  0  0  0
   -2.7533    0.3231    1.1862 H   0  0  0  0  0  0  0  0  0  0  0  0
   -1.4039    0.5301   -1.5947 H   0  0  0  0  0  0  0  0  0  0  0  0
   -1.3226    1.7888   -0.3143 H   0  0  0  0  0  0  0  0  0  0  0  0
   -0.2700    0.1394    1.2618 H   0  0  0  0  0  0  0  0  0  0  0  0
   -0.3099   -1.1170   -0.0347 H   0  0  0  0  0  0  0  0  0  0  0  0
    1.1765    1.5844   -0.1847 H   0  0  0  0  0  0  0  0  0  0  0  0
    1.1284    0.3296   -1.4859 H   0  0  0  0  0  0  0  0  0  0  0  0
    2.0425   -0.9358    0.9584 H   0  0  0  0  0  0  0  0  0  0  0  0
    4.4378   -1.3346    1.2536 H   0  0  0  0  0  0  0  0  0  0  0  0
    5.6415   -0.3983    0.3046 H   0  0  0  0  0  0  0  0  0  0  0  0
    4.8258    1.2499   -1.2559 H   0  0  0  0  0  0  0  0  0  0  0  0
   -3.2716   -3.1413    0.5344 H   0  0  0  0  0  0  0  0  0  0  0  0
  1  2  1  0
  2  3  1  0
  3  4  1  0
  4  5  1  0
  5  6  1  0
  6  7  1  0
  7  8  1  0
  7  9  2  3
  2 10  1  0
 10 11  1  0
 10 12  2  0
  1 13  1  0
  1 14  1  0
  2 15  1  1
  3 16  1  0
  3 17  1  0
  4 18  1  0
  4 19  1  0
  5 20  1  0
  5 21  1  0
  6 22  1  0
  8 23  1  0
  8 24  1  0
  9 25  1  0
 11 26  1  0
M  END
$$$$
