
     RDKit          3D

 79 82  0  0  0  0  0  0  0  0999 V2000
    4.3743   -4.5040   -5.4344 C   0  0  0  0  0  0  0  0  0  0  0  0
    3.7401   -3.7560   -4.3076 C   0  0  0  0  0  0  0  0  0  0  0  0
    2.7839   -4.2778   -3.6724 O   0  0  0  0  0  0  0  0  0  0  0  0
    4.2073   -2.4429   -3.9681 N   0  0  0  0  0  0  0  0  0  0  0  0
    3.6050   -1.6589   -2.8847 C   0  0  1  0  0  0  0  0  0  0  0  0
    4.5055   -0.4613   -2.5208 C   0  0  0  0  0  0  0  0  0  0  0  0
    3.9485    0.3275   -1.3590 C   0  0  0  0  0  0  0  0  0  0  0  0
    4.0373   -0.1783   -0.0553 C   0  0  0  0  0  0  0  0  0  0  0  0
    3.4677    0.5089    1.0304 C   0  0  0  0  0  0  0  0  0  0  0  0
    2.7725    1.7247    0.7930 C   0  0  0  0  0  0  0  0  0  0  0  0
    2.6928    2.2214   -0.5172 C   0  0  0  0  0  0  0  0  0  0  0  0
    3.2672    1.5291   -1.5821 C   0  0  0  0  0  0  0  0  0  0  0  0
    2.0418    2.7227    2.1121 P   0  0  0  0  0  5  0  0  0  0  0  0
    1.0429    3.9171    1.4473 O   0  0  0  0  0  0  0  0  0  0  0  0
    3.2729    3.4759    2.9948 O   0  0  0  0  0  0  0  0  0  0  0  0
    1.2147    1.8604    3.0376 O   0  0  0  0  0  0  0  0  0  0  0  0
    3.5911   -0.2510    2.6668 P   0  0  0  0  0  5  0  0  0  0  0  0
    2.0802   -0.8674    3.1157 O   0  0  0  0  0  0  0  0  0  0  0  0
    4.1019    0.8866    3.8096 O   0  0  0  0  0  0  0  0  0  0  0  0
    4.5921   -1.3847    2.6402 O   0  0  0  0  0  0  0  0  0  0  0  0
    2.2310   -1.1855   -3.2861 C   0  0  0  0  0  0  0  0  0  0  0  0
    1.9972   -0.8711   -4.4853 O   0  0  0  0  0  0  0  0  0  0  0  0
    1.2202   -1.0173   -2.2829 N   0  0  0  0  0  0  0  0  0  0  0  0
   -0.0857   -0.4180   -2.5699 C   0  0  1  0  0  0  0  0  0  0  0  0
   -1.0140   -1.3949   -3.3152 C   0  0  0  0  0  0  0  0  0  0  0  0
   -0.9998   -2.8458   -2.7953 C   0  0  0  0  0  0  0  0  0  0  0  0
   -1.0672   -3.0162   -1.2671 C   0  0  0  0  0  0  0  0  0  0  0  0
   -1.9395   -1.9744   -0.5607 C   0  0  0  0  0  0  0  0  0  0  0  0
   -1.1665   -0.7630   -0.2517 N   0  0  0  0  0  0  0  0  0  0  0  0
   -0.9202   -0.3962    1.1493 C   0  0  0  0  0  0  0  0  0  0  0  0
   -2.0621    0.4172    1.7010 C   0  0  0  0  0  0  0  0  0  0  0  0
   -2.0088    1.8187    1.6863 C   0  0  0  0  0  0  0  0  0  0  0  0
   -3.0739    2.5740    2.1831 C   0  0  0  0  0  0  0  0  0  0  0  0
   -4.2171    1.9409    2.7022 C   0  0  0  0  0  0  0  0  0  0  0  0
   -4.2682    0.5356    2.7146 C   0  0  0  0  0  0  0  0  0  0  0  0
   -3.2007   -0.2182    2.2189 C   0  0  0  0  0  0  0  0  0  0  0  0
   -5.3507    2.7428    3.2296 C   0  0  0  0  0  0  0  0  0  0  0  0
   -6.6804    2.3586    2.9716 C   0  0  0  0  0  0  0  0  0  0  0  0
   -7.7456    3.1158    3.4688 C   0  0  0  0  0  0  0  0  0  0  0  0
   -7.4972    4.2614    4.2280 C   0  0  0  0  0  0  0  0  0  0  0  0
   -6.1827    4.6528    4.4914 C   0  0  0  0  0  0  0  0  0  0  0  0
   -5.1136    3.9000    3.9959 C   0  0  0  0  0  0  0  0  0  0  0  0
   -0.7074    0.1130   -1.3004 C   0  0  0  0  0  0  0  0  0  0  0  0
   -0.7333    1.3607   -1.1225 O   0  0  0  0  0  0  0  0  0  0  0  0
    3.9798   -5.5411   -5.4866 H   0  0  0  0  0  0  0  0  0  0  0  0
    5.4731   -4.5456   -5.2828 H   0  0  0  0  0  0  0  0  0  0  0  0
    4.1564   -3.9854   -6.3911 H   0  0  0  0  0  0  0  0  0  0  0  0
    5.0021   -2.0424   -4.5174 H   0  0  0  0  0  0  0  0  0  0  0  0
    3.5201   -2.3127   -1.9881 H   0  0  0  0  0  0  0  0  0  0  0  0
    5.5164   -0.8361   -2.2482 H   0  0  0  0  0  0  0  0  0  0  0  0
    4.6338    0.1964   -3.4093 H   0  0  0  0  0  0  0  0  0  0  0  0
    4.5431   -1.1221    0.1054 H   0  0  0  0  0  0  0  0  0  0  0  0
    2.1796    3.1513   -0.7238 H   0  0  0  0  0  0  0  0  0  0  0  0
    3.1698    1.9265   -2.5848 H   0  0  0  0  0  0  0  0  0  0  0  0
    0.7023    4.4250    2.2263 H   0  0  0  0  0  0  0  0  0  0  0  0
    3.7575    4.0278    2.3304 H   0  0  0  0  0  0  0  0  0  0  0  0
    1.8416   -1.5026    2.3940 H   0  0  0  0  0  0  0  0  0  0  0  0
    3.9875    0.4357    4.6838 H   0  0  0  0  0  0  0  0  0  0  0  0
    1.4660   -1.2544   -1.2946 H   0  0  0  0  0  0  0  0  0  0  0  0
    0.0731    0.4572   -3.2404 H   0  0  0  0  0  0  0  0  0  0  0  0
   -2.0540   -1.0012   -3.3023 H   0  0  0  0  0  0  0  0  0  0  0  0
   -0.7140   -1.4202   -4.3854 H   0  0  0  0  0  0  0  0  0  0  0  0
   -1.8644   -3.3766   -3.2506 H   0  0  0  0  0  0  0  0  0  0  0  0
   -0.0832   -3.3554   -3.1647 H   0  0  0  0  0  0  0  0  0  0  0  0
   -0.0448   -3.0038   -0.8331 H   0  0  0  0  0  0  0  0  0  0  0  0
   -1.4784   -4.0277   -1.0559 H   0  0  0  0  0  0  0  0  0  0  0  0
   -2.8339   -1.7150   -1.1667 H   0  0  0  0  0  0  0  0  0  0  0  0
   -2.3210   -2.4328    0.3765 H   0  0  0  0  0  0  0  0  0  0  0  0
   -0.7786   -1.3121    1.7638 H   0  0  0  0  0  0  0  0  0  0  0  0
    0.0341    0.1687    1.2288 H   0  0  0  0  0  0  0  0  0  0  0  0
   -1.1422    2.3300    1.2907 H   0  0  0  0  0  0  0  0  0  0  0  0
   -3.0103    3.6542    2.1443 H   0  0  0  0  0  0  0  0  0  0  0  0
   -5.1260    0.0182    3.1255 H   0  0  0  0  0  0  0  0  0  0  0  0
   -3.2604   -1.2982    2.2511 H   0  0  0  0  0  0  0  0  0  0  0  0
   -6.8964    1.4839    2.3711 H   0  0  0  0  0  0  0  0  0  0  0  0
   -8.7648    2.8156    3.2622 H   0  0  0  0  0  0  0  0  0  0  0  0
   -8.3232    4.8458    4.6122 H   0  0  0  0  0  0  0  0  0  0  0  0
   -5.9914    5.5387    5.0830 H   0  0  0  0  0  0  0  0  0  0  0  0
   -4.1030    4.2125    4.2268 H   0  0  0  0  0  0  0  0  0  0  0  0
  1  2  1  0
  2  3  2  0
  2  4  1  0
  4  5  1  0
  5  6  1  0
  6  7  1  0
  7  8  2  0
  8  9  1  0
  9 10  2  0
 10 11  1  0
 11 12  2  0
 10 13  1  0
 13 14  1  0
 13 15  1  0
 13 16  2  0
  9 17  1  0
 17 18  1  0
 17 19  1  0
 17 20  2  0
  5 21  1  0
 21 22  2  0
 21 23  1  0
 23 24  1  0
 24 25  1  0
 25 26  1  0
 26 27  1  0
 27 28  1  0
 28 29  1  0
 29 30  1  0
 30 31  1  0
 31 32  2  0
 32 33  1  0
 33 34  2  0
 34 35  1  0
 35 36  2  0
 34 37  1  0
 37 38  2  0
 38 39  1  0
 39 40  2  0
 40 41  1  0
 41 42  2  0
 29 43  1  0
 43 44  2  0
 12  7  1  0
 43 24  1  0
 36 31  1  0
 42 37  1  0
  1 45  1  0
  1 46  1  0
  1 47  1  0
  4 48  1  0
  5 49  1  1
  6 50  1  0
  6 51  1  0
  8 52  1  0
 11 53  1  0
 12 54  1  0
 14 55  1  0
 15 56  1  0
 18 57  1  0
 19 58  1  0
 23 59  1  0
 24 60  1  6
 25 61  1  0
 25 62  1  0
 26 63  1  0
 26 64  1  0
 27 65  1  0
 27 66  1  0
 28 67  1  0
 28 68  1  0
 30 69  1  0
 30 70  1  0
 32 71  1  0
 33 72  1  0
 35 73  1  0
 36 74  1  0
 38 75  1  0
 39 76  1  0
 40 77  1  0
 41 78  1  0
 42 79  1  0
M  END
$$$$
