
     RDKit          3D

 42 43  0  0  0  0  0  0  0  0999 V2000
    4.7952    3.0814   -0.9214 C   0  0  0  0  0  0  0  0  0  0  0  0
    4.1284    1.7487   -1.0914 C   0  0  0  0  0  0  0  0  0  0  0  0
    4.2880    1.0247   -2.2830 C   0  0  0  0  0  0  0  0  0  0  0  0
    3.6956   -0.2334   -2.4283 C   0  0  0  0  0  0  0  0  0  0  0  0
    2.9463   -0.7849   -1.3806 C   0  0  0  0  0  0  0  0  0  0  0  0
    2.8071   -0.0748   -0.1805 C   0  0  0  0  0  0  0  0  0  0  0  0
    3.3978    1.1838   -0.0348 C   0  0  0  0  0  0  0  0  0  0  0  0
    2.1945   -2.3666   -1.5618 S   0  0  0  0  0  6  0  0  0  0  0  0
    3.1296   -3.4182   -1.0352 O   0  0  0  0  0  0  0  0  0  0  0  0
    1.9015   -2.6463   -3.0094 O   0  0  0  0  0  0  0  0  0  0  0  0
    0.7111   -2.4174   -0.6684 N   0  0  0  0  0  0  0  0  0  0  0  0
   -0.3442   -1.4829   -0.9140 C   0  0  0  0  0  0  0  0  0  0  0  0
   -0.2722   -0.6874   -1.8897 O   0  0  0  0  0  0  0  0  0  0  0  0
   -1.4787   -1.4442   -0.0437 N   0  0  0  0  0  0  0  0  0  0  0  0
   -2.4729   -0.4545   -0.2037 N   0  0  0  0  0  0  0  0  0  0  0  0
   -3.8096   -0.9687    0.1536 C   0  0  0  0  0  0  0  0  0  0  0  0
   -4.0625   -1.1368    1.6663 C   0  0  0  0  0  0  0  0  0  0  0  0
   -4.2674    0.2079    2.3784 C   0  0  0  0  0  0  0  0  0  0  0  0
   -2.9633    0.8606    2.8650 C   0  0  0  0  0  0  0  0  0  0  0  0
   -1.7487    0.6857    1.9392 C   0  0  0  0  0  0  0  0  0  0  0  0
   -2.0802    0.8174    0.4387 C   0  0  0  0  0  0  0  0  0  0  0  0
    4.8737    3.6074   -1.8966 H   0  0  0  0  0  0  0  0  0  0  0  0
    4.2117    3.7259   -0.2299 H   0  0  0  0  0  0  0  0  0  0  0  0
    5.8140    2.9340   -0.5062 H   0  0  0  0  0  0  0  0  0  0  0  0
    4.8702    1.4342   -3.0994 H   0  0  0  0  0  0  0  0  0  0  0  0
    3.8245   -0.7769   -3.3556 H   0  0  0  0  0  0  0  0  0  0  0  0
    2.2433   -0.4948    0.6428 H   0  0  0  0  0  0  0  0  0  0  0  0
    3.2853    1.7171    0.9011 H   0  0  0  0  0  0  0  0  0  0  0  0
    0.6237   -3.1013    0.1155 H   0  0  0  0  0  0  0  0  0  0  0  0
   -1.5490   -2.1606    0.7140 H   0  0  0  0  0  0  0  0  0  0  0  0
   -4.5823   -0.3004   -0.2844 H   0  0  0  0  0  0  0  0  0  0  0  0
   -3.9554   -1.9565   -0.3367 H   0  0  0  0  0  0  0  0  0  0  0  0
   -3.2638   -1.7307    2.1573 H   0  0  0  0  0  0  0  0  0  0  0  0
   -5.0009   -1.7229    1.7782 H   0  0  0  0  0  0  0  0  0  0  0  0
   -4.9177    0.0451    3.2658 H   0  0  0  0  0  0  0  0  0  0  0  0
   -4.8165    0.9146    1.7184 H   0  0  0  0  0  0  0  0  0  0  0  0
   -3.1526    1.9466    3.0118 H   0  0  0  0  0  0  0  0  0  0  0  0
   -2.7008    0.4423    3.8614 H   0  0  0  0  0  0  0  0  0  0  0  0
   -1.2474   -0.2790    2.1600 H   0  0  0  0  0  0  0  0  0  0  0  0
   -1.0105    1.4740    2.2041 H   0  0  0  0  0  0  0  0  0  0  0  0
   -2.8685    1.5848    0.2777 H   0  0  0  0  0  0  0  0  0  0  0  0
   -1.1765    1.2030   -0.0812 H   0  0  0  0  0  0  0  0  0  0  0  0
  1  2  1  0
  2  3  2  0
  3  4  1  0
  4  5  2  0
  5  6  1  0
  6  7  2  0
  5  8  1  0
  8  9  2  0
  8 10  2  0
  8 11  1  0
 11 12  1  0
 12 13  2  0
 12 14  1  0
 14 15  1  0
 15 16  1  0
 16 17  1  0
 17 18  1  0
 18 19  1  0
 19 20  1  0
 20 21  1  0
  7  2  1  0
 21 15  1  0
  1 22  1  0
  1 23  1  0
  1 24  1  0
  3 25  1  0
  4 26  1  0
  6 27  1  0
  7 28  1  0
 11 29  1  0
 14 30  1  0
 16 31  1  0
 16 32  1  0
 17 33  1  0
 17 34  1  0
 18 35  1  0
 18 36  1  0
 19 37  1  0
 19 38  1  0
 20 39  1  0
 20 40  1  0
 21 41  1  0
 21 42  1  0
M  END
$$$$
