
     RDKit          3D

 41 43  0  0  0  0  0  0  0  0999 V2000
   -3.0608   -4.1273    1.8260 C   0  0  0  0  0  0  0  0  0  0  0  0
   -3.2376   -2.7536    1.4964 O   0  0  0  0  0  0  0  0  0  0  0  0
   -2.2891   -1.9744    0.8178 C   0  0  0  0  0  0  0  0  0  0  0  0
   -2.5997   -0.6263    0.5589 C   0  0  0  0  0  0  0  0  0  0  0  0
   -1.6595    0.1553   -0.1128 C   0  0  0  0  0  0  0  0  0  0  0  0
   -0.4482   -0.3514   -0.5110 C   0  0  0  0  0  0  0  0  0  0  0  0
   -0.1146   -1.6902   -0.2886 C   0  0  0  0  0  0  0  0  0  0  0  0
   -1.0419   -2.5024    0.3864 C   0  0  0  0  0  0  0  0  0  0  0  0
    0.2822    0.5969   -1.1376 N   0  0  0  0  0  0  0  0  0  0  0  0
    1.5823    0.4393   -1.7298 C   0  0  0  0  0  0  0  0  0  0  0  0
    1.7488    0.7601   -2.9380 O   0  0  0  0  0  0  0  0  0  0  0  0
    2.7285   -0.0716   -0.9410 C   0  0  0  0  0  0  0  0  0  0  0  0
    3.8615   -0.5940   -1.5907 C   0  0  0  0  0  0  0  0  0  0  0  0
    4.9445   -1.0747   -0.8484 C   0  0  0  0  0  0  0  0  0  0  0  0
    4.9118   -1.0331    0.5485 C   0  0  0  0  0  0  0  0  0  0  0  0
    6.2715   -1.6370    1.4775 Cl  0  0  0  0  0  0  0  0  0  0  0  0
    3.7953   -0.5058    1.2038 C   0  0  0  0  0  0  0  0  0  0  0  0
    2.7106   -0.0239    0.4653 C   0  0  0  0  0  0  0  0  0  0  0  0
   -0.4790    1.7228   -1.1390 C   0  0  0  0  0  0  0  0  0  0  0  0
   -0.0634    3.0242   -1.7620 C   0  0  0  0  0  0  0  0  0  0  0  0
   -1.7078    1.4761   -0.5208 C   0  0  0  0  0  0  0  0  0  0  0  0
   -2.8268    2.4493   -0.2846 C   0  0  0  0  0  0  0  0  0  0  0  0
   -2.6693    3.0964    1.0531 C   0  0  0  0  0  0  0  0  0  0  0  0
   -1.9310    4.2693    1.1739 O   0  0  0  0  0  0  0  0  0  0  0  0
   -3.1713    2.5600    2.0769 O   0  0  0  0  0  0  0  0  0  0  0  0
   -3.9622   -4.4907    2.3605 H   0  0  0  0  0  0  0  0  0  0  0  0
   -2.1795   -4.2502    2.4905 H   0  0  0  0  0  0  0  0  0  0  0  0
   -2.9294   -4.7280    0.9013 H   0  0  0  0  0  0  0  0  0  0  0  0
   -3.5488   -0.2108    0.8721 H   0  0  0  0  0  0  0  0  0  0  0  0
    0.8273   -2.1020   -0.6249 H   0  0  0  0  0  0  0  0  0  0  0  0
   -0.7845   -3.5370    0.5661 H   0  0  0  0  0  0  0  0  0  0  0  0
    3.9058   -0.6405   -2.6717 H   0  0  0  0  0  0  0  0  0  0  0  0
    5.8081   -1.4798   -1.3604 H   0  0  0  0  0  0  0  0  0  0  0  0
    3.7681   -0.4654    2.2853 H   0  0  0  0  0  0  0  0  0  0  0  0
    1.8638    0.3935    0.9950 H   0  0  0  0  0  0  0  0  0  0  0  0
   -0.5164    3.8797   -1.2209 H   0  0  0  0  0  0  0  0  0  0  0  0
   -0.3897    3.0467   -2.8222 H   0  0  0  0  0  0  0  0  0  0  0  0
    1.0389    3.1423   -1.7145 H   0  0  0  0  0  0  0  0  0  0  0  0
   -2.8345    3.2261   -1.0776 H   0  0  0  0  0  0  0  0  0  0  0  0
   -3.8033    1.9221   -0.3354 H   0  0  0  0  0  0  0  0  0  0  0  0
   -1.8007    4.7104    2.0764 H   0  0  0  0  0  0  0  0  0  0  0  0
  1  2  1  0
  2  3  1  0
  3  4  2  0
  4  5  1  0
  5  6  2  0
  6  7  1  0
  7  8  2  0
  6  9  1  0
  9 10  1  0
 10 11  2  0
 10 12  1  0
 12 13  2  0
 13 14  1  0
 14 15  2  0
 15 16  1  0
 15 17  1  0
 17 18  2  0
  9 19  1  0
 19 20  1  0
 19 21  2  0
 21 22  1  0
 22 23  1  0
 23 24  1  0
 23 25  2  0
  8  3  1  0
 18 12  1  0
 21  5  1  0
  1 26  1  0
  1 27  1  0
  1 28  1  0
  4 29  1  0
  7 30  1  0
  8 31  1  0
 13 32  1  0
 14 33  1  0
 17 34  1  0
 18 35  1  0
 20 36  1  0
 20 37  1  0
 20 38  1  0
 22 39  1  0
 22 40  1  0
 24 41  1  0
M  END
$$$$
