
     RDKit          3D

 48 50  0  0  0  0  0  0  0  0999 V2000
   -5.3952    3.6845   -0.0682 O   0  0  0  0  0  0  0  0  0  0  0  0
   -4.8157    2.5984    0.4966 N   0  0  0  0  0  0  0  0  0  0  0  0
   -4.9067    1.3166   -0.1322 C   0  0  0  0  0  0  0  0  0  0  0  0
   -5.5728    1.1903   -1.1947 O   0  0  0  0  0  0  0  0  0  0  0  0
   -4.2411    0.1125    0.4837 C   0  0  0  0  0  0  0  0  0  0  0  0
   -2.8287   -0.2374   -0.0959 C   0  0  0  0  0  0  0  0  0  0  0  0
   -2.9007   -0.6632   -1.5937 C   0  0  0  0  0  0  0  0  0  0  0  0
   -3.1362   -2.1763   -1.7737 C   0  0  0  0  0  0  0  0  0  0  0  0
   -3.8412   -2.7155   -0.6762 O   0  0  0  0  0  0  0  0  0  0  0  0
   -3.0177   -2.7376    0.4792 C   0  0  0  0  0  0  0  0  0  0  0  0
   -2.2382   -1.4201    0.7127 C   0  0  0  0  0  0  0  0  0  0  0  0
   -1.7227    1.1915    0.0832 S   0  0  0  0  0  6  0  0  0  0  0  0
   -2.1471    2.2854   -0.8574 O   0  0  0  0  0  0  0  0  0  0  0  0
   -1.8054    1.7190    1.4889 O   0  0  0  0  0  0  0  0  0  0  0  0
   -0.0397    0.7827   -0.2616 C   0  0  0  0  0  0  0  0  0  0  0  0
    0.7948    0.3135    0.7624 C   0  0  0  0  0  0  0  0  0  0  0  0
    2.1262   -0.0146    0.4921 C   0  0  0  0  0  0  0  0  0  0  0  0
    2.6448    0.1404   -0.8059 C   0  0  0  0  0  0  0  0  0  0  0  0
    3.9702   -0.1938   -1.1208 O   0  0  0  0  0  0  0  0  0  0  0  0
    5.0628   -0.0976   -0.2465 C   0  0  0  0  0  0  0  0  0  0  0  0
    6.1349   -0.9837   -0.4096 C   0  0  0  0  0  0  0  0  0  0  0  0
    7.2486   -0.9097    0.4327 C   0  0  0  0  0  0  0  0  0  0  0  0
    7.3040    0.0613    1.4379 C   0  0  0  0  0  0  0  0  0  0  0  0
    8.7022    0.1549    2.4929 Cl  0  0  0  0  0  0  0  0  0  0  0  0
    6.2466    0.9634    1.5947 C   0  0  0  0  0  0  0  0  0  0  0  0
    5.1321    0.8904    0.7534 C   0  0  0  0  0  0  0  0  0  0  0  0
    1.8052    0.5962   -1.8283 C   0  0  0  0  0  0  0  0  0  0  0  0
    0.4735    0.9241   -1.5583 C   0  0  0  0  0  0  0  0  0  0  0  0
   -4.6865    4.0843   -0.6344 H   0  0  0  0  0  0  0  0  0  0  0  0
   -4.3238    2.7038    1.4117 H   0  0  0  0  0  0  0  0  0  0  0  0
   -4.1549    0.2845    1.5787 H   0  0  0  0  0  0  0  0  0  0  0  0
   -4.9348   -0.7458    0.3687 H   0  0  0  0  0  0  0  0  0  0  0  0
   -3.6870   -0.1002   -2.1333 H   0  0  0  0  0  0  0  0  0  0  0  0
   -1.9495   -0.4210   -2.1110 H   0  0  0  0  0  0  0  0  0  0  0  0
   -3.7317   -2.3443   -2.6959 H   0  0  0  0  0  0  0  0  0  0  0  0
   -2.1666   -2.7078   -1.9195 H   0  0  0  0  0  0  0  0  0  0  0  0
   -2.3128   -3.5966    0.4230 H   0  0  0  0  0  0  0  0  0  0  0  0
   -3.6731   -2.9187    1.3573 H   0  0  0  0  0  0  0  0  0  0  0  0
   -2.2088   -1.1820    1.7989 H   0  0  0  0  0  0  0  0  0  0  0  0
   -1.1902   -1.5984    0.3907 H   0  0  0  0  0  0  0  0  0  0  0  0
    0.4108    0.1863    1.7665 H   0  0  0  0  0  0  0  0  0  0  0  0
    2.7432   -0.4072    1.2896 H   0  0  0  0  0  0  0  0  0  0  0  0
    6.1005   -1.7366   -1.1867 H   0  0  0  0  0  0  0  0  0  0  0  0
    8.0675   -1.6057    0.3021 H   0  0  0  0  0  0  0  0  0  0  0  0
    6.2904    1.7253    2.3625 H   0  0  0  0  0  0  0  0  0  0  0  0
    4.3366    1.6145    0.8700 H   0  0  0  0  0  0  0  0  0  0  0  0
    2.1893    0.7046   -2.8347 H   0  0  0  0  0  0  0  0  0  0  0  0
   -0.1554    1.2853   -2.3617 H   0  0  0  0  0  0  0  0  0  0  0  0
  1  2  1  0
  2  3  1  0
  3  4  2  0
  3  5  1  0
  5  6  1  0
  6  7  1  0
  7  8  1  0
  8  9  1  0
  9 10  1  0
 10 11  1  0
  6 12  1  0
 12 13  2  0
 12 14  2  0
 12 15  1  0
 15 16  2  0
 16 17  1  0
 17 18  2  0
 18 19  1  0
 19 20  1  0
 20 21  2  0
 21 22  1  0
 22 23  2  0
 23 24  1  0
 23 25  1  0
 25 26  2  0
 18 27  1  0
 27 28  2  0
 11  6  1  0
 28 15  1  0
 26 20  1  0
  1 29  1  0
  2 30  1  0
  5 31  1  0
  5 32  1  0
  7 33  1  0
  7 34  1  0
  8 35  1  0
  8 36  1  0
 10 37  1  0
 10 38  1  0
 11 39  1  0
 11 40  1  0
 16 41  1  0
 17 42  1  0
 21 43  1  0
 22 44  1  0
 25 45  1  0
 26 46  1  0
 27 47  1  0
 28 48  1  0
M  END
$$$$
