
     RDKit          3D

 99103  0  0  0  0  0  0  0  0999 V2000
   -4.6072    2.9414    0.6520 C   0  0  2  0  0  0  0  0  0  0  0  0
   -5.9136    2.3931    0.6509 O   0  0  0  0  0  0  0  0  0  0  0  0
   -5.7747    0.9913    0.6091 C   0  0  0  0  0  0  0  0  0  0  0  0
   -4.4698    0.7085   -0.0252 C   0  0  0  0  0  0  0  0  0  0  0  0
   -4.0576   -0.4892   -0.4691 C   0  0  0  0  0  0  0  0  0  0  0  0
   -4.5325   -1.7741    0.0477 C   0  0  0  0  0  0  0  0  0  0  0  0
   -4.4206   -2.0315    1.3539 C   0  0  0  0  0  0  0  0  0  0  0  0
   -4.2258   -3.4342    1.8615 C   0  0  2  0  0  0  0  0  0  0  0  0
   -5.0917   -3.6508    3.1057 C   0  0  0  0  0  0  0  0  0  0  0  0
   -2.7329   -3.6628    2.1943 C   0  0  0  0  0  0  0  0  0  0  0  0
   -1.8463   -3.6373    0.9592 C   0  0  0  0  0  0  0  0  0  0  0  0
   -1.8328   -4.8506    0.0611 C   0  0  0  0  0  0  0  0  0  0  0  0
   -1.0928   -2.5454    0.6767 C   0  0  0  0  0  0  0  0  0  0  0  0
   -0.1282   -2.4906   -0.4943 C   0  0  0  0  0  0  0  0  0  0  0  0
    0.5392   -1.1110   -0.6863 C   0  0  2  0  0  0  0  0  0  0  0  0
   -0.4883   -0.0810   -1.1848 C   0  0  0  0  0  0  0  0  0  0  0  0
    0.1635    1.2630   -1.5202 C   0  0  1  0  0  0  0  0  0  0  0  0
    1.3756    1.0273   -2.4219 C   0  0  0  0  0  0  0  0  0  0  0  0
    2.3194   -0.0475   -1.8299 C   0  0  1  0  0  0  0  0  0  0  0  0
    3.4366   -0.3076   -2.8653 C   0  0  0  0  0  0  0  0  0  0  0  0
    4.5636   -1.1037   -2.2648 C   0  0  0  0  0  0  0  0  0  0  0  0
    5.2851   -1.9002   -2.9975 N   0  0  0  0  0  0  0  0  0  0  0  0
    4.9961   -2.1529   -4.3203 O   0  0  0  0  0  0  0  0  0  0  0  0
    5.8124   -3.0311   -5.0760 C   0  0  0  0  0  0  0  0  0  0  0  0
    5.0033   -0.7572   -0.8624 C   0  0  2  0  0  0  0  0  0  0  0  0
    5.8738   -1.8668   -0.2415 C   0  0  0  0  0  0  0  0  0  0  0  0
    3.7490   -0.4843    0.0056 C   0  0  2  0  0  0  0  0  0  0  0  0
    2.8829    0.4540   -0.6201 O   0  0  0  0  0  0  0  0  0  0  0  0
    4.1274    0.0613    1.3747 C   0  0  0  0  0  0  0  0  0  0  0  0
    3.8827   -0.7901    2.6006 C   0  0  0  0  0  0  0  0  0  0  0  0
    4.6529    1.3065    1.4727 C   0  0  0  0  0  0  0  0  0  0  0  0
    5.1278    1.9387    2.7647 C   0  0  0  0  0  0  0  0  0  0  0  0
    4.8863    3.4511    2.7278 C   0  0  0  0  0  0  0  0  0  0  0  0
    6.6153    1.6397    2.9734 C   0  0  0  0  0  0  0  0  0  0  0  0
    1.5956   -1.2607   -1.6255 O   0  0  0  0  0  0  0  0  0  0  0  0
   -0.7741    2.1000   -2.2043 O   0  0  0  0  0  0  0  0  0  0  0  0
   -1.7568    2.8354   -1.5333 C   0  0  0  0  0  0  0  0  0  0  0  0
   -1.4392    3.9024   -0.9433 O   0  0  0  0  0  0  0  0  0  0  0  0
   -3.1789    2.3260   -1.4879 C   0  0  2  0  0  0  0  0  0  0  0  0
   -4.1144    3.2936   -2.1722 C   0  0  0  0  0  0  0  0  0  0  0  0
   -4.7927    4.2327   -1.4907 C   0  0  0  0  0  0  0  0  0  0  0  0
   -5.7574    5.1428   -2.2083 C   0  0  0  0  0  0  0  0  0  0  0  0
   -4.6040    4.3385    0.0048 C   0  0  1  0  0  0  0  0  0  0  0  0
   -5.6107    5.1359    0.5760 O   0  0  0  0  0  0  0  0  0  0  0  0
   -3.6340    1.9383   -0.0290 C   0  0  1  0  0  0  0  0  0  0  0  0
   -2.5035    1.7492    0.7997 O   0  0  0  0  0  0  0  0  0  0  0  0
   -4.3149    3.0834    1.7180 H   0  0  0  0  0  0  0  0  0  0  0  0
   -5.8141    0.5759    1.6383 H   0  0  0  0  0  0  0  0  0  0  0  0
   -6.5972    0.5630   -0.0018 H   0  0  0  0  0  0  0  0  0  0  0  0
   -3.1908   -0.5593   -1.0996 H   0  0  0  0  0  0  0  0  0  0  0  0
   -4.5960   -2.5990   -0.6514 H   0  0  0  0  0  0  0  0  0  0  0  0
   -4.2059   -1.2207    2.0421 H   0  0  0  0  0  0  0  0  0  0  0  0
   -4.5490   -4.1767    1.0972 H   0  0  0  0  0  0  0  0  0  0  0  0
   -6.1621   -3.4811    2.8596 H   0  0  0  0  0  0  0  0  0  0  0  0
   -4.9823   -4.6944    3.4705 H   0  0  0  0  0  0  0  0  0  0  0  0
   -4.7955   -2.9541    3.9197 H   0  0  0  0  0  0  0  0  0  0  0  0
   -2.3907   -2.9074    2.9372 H   0  0  0  0  0  0  0  0  0  0  0  0
   -2.6142   -4.6536    2.6848 H   0  0  0  0  0  0  0  0  0  0  0  0
   -2.1996   -4.5767   -0.9503 H   0  0  0  0  0  0  0  0  0  0  0  0
   -0.8035   -5.2599   -0.0132 H   0  0  0  0  0  0  0  0  0  0  0  0
   -2.4931   -5.6491    0.4601 H   0  0  0  0  0  0  0  0  0  0  0  0
   -1.1563   -1.6809    1.3325 H   0  0  0  0  0  0  0  0  0  0  0  0
   -0.6569   -2.7709   -1.4311 H   0  0  0  0  0  0  0  0  0  0  0  0
    0.6690   -3.2448   -0.3172 H   0  0  0  0  0  0  0  0  0  0  0  0
    0.9376   -0.7854    0.3014 H   0  0  0  0  0  0  0  0  0  0  0  0
   -1.2225    0.0805   -0.3803 H   0  0  0  0  0  0  0  0  0  0  0  0
   -1.0057   -0.4706   -2.0895 H   0  0  0  0  0  0  0  0  0  0  0  0
    0.5019    1.7616   -0.5833 H   0  0  0  0  0  0  0  0  0  0  0  0
    1.9220    1.9880   -2.5494 H   0  0  0  0  0  0  0  0  0  0  0  0
    1.0194    0.6991   -3.4246 H   0  0  0  0  0  0  0  0  0  0  0  0
    3.8618    0.6557   -3.2232 H   0  0  0  0  0  0  0  0  0  0  0  0
    2.9989   -0.8362   -3.7401 H   0  0  0  0  0  0  0  0  0  0  0  0
    5.4164   -3.1015   -6.1098 H   0  0  0  0  0  0  0  0  0  0  0  0
    5.8068   -4.0404   -4.6137 H   0  0  0  0  0  0  0  0  0  0  0  0
    6.8519   -2.6426   -5.1093 H   0  0  0  0  0  0  0  0  0  0  0  0
    5.6174    0.1671   -0.9297 H   0  0  0  0  0  0  0  0  0  0  0  0
    6.2030   -1.5806    0.7793 H   0  0  0  0  0  0  0  0  0  0  0  0
    5.3078   -2.8213   -0.1826 H   0  0  0  0  0  0  0  0  0  0  0  0
    6.7899   -2.0259   -0.8492 H   0  0  0  0  0  0  0  0  0  0  0  0
    3.2213   -1.4527    0.1521 H   0  0  0  0  0  0  0  0  0  0  0  0
    3.5017   -1.7974    2.3335 H   0  0  0  0  0  0  0  0  0  0  0  0
    4.8279   -0.9305    3.1646 H   0  0  0  0  0  0  0  0  0  0  0  0
    3.1274   -0.3039    3.2528 H   0  0  0  0  0  0  0  0  0  0  0  0
    4.8094    1.8774    0.5602 H   0  0  0  0  0  0  0  0  0  0  0  0
    4.5601    1.5404    3.6321 H   0  0  0  0  0  0  0  0  0  0  0  0
    5.4591    3.9239    1.9007 H   0  0  0  0  0  0  0  0  0  0  0  0
    3.8048    3.6599    2.5802 H   0  0  0  0  0  0  0  0  0  0  0  0
    5.2002    3.9122    3.6886 H   0  0  0  0  0  0  0  0  0  0  0  0
    7.2203    2.0590    2.1405 H   0  0  0  0  0  0  0  0  0  0  0  0
    6.9644    2.0839    3.9299 H   0  0  0  0  0  0  0  0  0  0  0  0
    6.7863    0.5434    3.0188 H   0  0  0  0  0  0  0  0  0  0  0  0
   -3.1823    1.4219   -2.1311 H   0  0  0  0  0  0  0  0  0  0  0  0
   -4.2433    3.2029   -3.2478 H   0  0  0  0  0  0  0  0  0  0  0  0
   -5.5390    6.1989   -1.9449 H   0  0  0  0  0  0  0  0  0  0  0  0
   -6.7955    4.8981   -1.9003 H   0  0  0  0  0  0  0  0  0  0  0  0
   -5.6832    5.0406   -3.3122 H   0  0  0  0  0  0  0  0  0  0  0  0
   -3.6132    4.8146    0.1855 H   0  0  0  0  0  0  0  0  0  0  0  0
   -5.2933    5.3955    1.4803 H   0  0  0  0  0  0  0  0  0  0  0  0
   -2.7944    1.3604    1.6676 H   0  0  0  0  0  0  0  0  0  0  0  0
  1  2  1  0
  2  3  1  0
  3  4  1  0
  4  5  2  0
  5  6  1  0
  6  7  2  0
  7  8  1  0
  8  9  1  0
  8 10  1  0
 10 11  1  0
 11 12  1  0
 11 13  2  0
 13 14  1  0
 14 15  1  0
 15 16  1  0
 16 17  1  0
 17 18  1  0
 18 19  1  0
 19 20  1  0
 20 21  1  0
 21 22  2  0
 22 23  1  0
 23 24  1  0
 21 25  1  0
 25 26  1  0
 25 27  1  0
 27 28  1  0
 27 29  1  0
 29 30  1  0
 29 31  2  0
 31 32  1  0
 32 33  1  0
 32 34  1  0
 19 35  1  1
 17 36  1  0
 36 37  1  0
 37 38  2  0
 37 39  1  0
 39 40  1  0
 40 41  2  0
 41 42  1  0
 41 43  1  0
 43 44  1  0
 39 45  1  0
 45 46  1  1
 43  1  1  0
 45  1  1  0
 45  4  1  0
 35 15  1  0
 28 19  1  0
  1 47  1  1
  3 48  1  0
  3 49  1  0
  5 50  1  0
  6 51  1  0
  7 52  1  0
  8 53  1  6
  9 54  1  0
  9 55  1  0
  9 56  1  0
 10 57  1  0
 10 58  1  0
 12 59  1  0
 12 60  1  0
 12 61  1  0
 13 62  1  0
 14 63  1  0
 14 64  1  0
 15 65  1  1
 16 66  1  0
 16 67  1  0
 17 68  1  1
 18 69  1  0
 18 70  1  0
 20 71  1  0
 20 72  1  0
 24 73  1  0
 24 74  1  0
 24 75  1  0
 25 76  1  6
 26 77  1  0
 26 78  1  0
 26 79  1  0
 27 80  1  1
 30 81  1  0
 30 82  1  0
 30 83  1  0
 31 84  1  0
 32 85  1  0
 33 86  1  0
 33 87  1  0
 33 88  1  0
 34 89  1  0
 34 90  1  0
 34 91  1  0
 39 92  1  6
 40 93  1  0
 42 94  1  0
 42 95  1  0
 42 96  1  0
 43 97  1  6
 44 98  1  0
 46 99  1  0
M  END
$$$$
