
     RDKit          3D

 41 44  0  0  0  0  0  0  0  0999 V2000
    6.1075    0.4943   -0.6102 C   0  0  0  0  0  0  0  0  0  0  0  0
    5.5703   -0.4904    0.4323 C   0  0  0  0  0  0  0  0  0  0  0  0
    6.6699   -1.4672    0.8609 C   0  0  0  0  0  0  0  0  0  0  0  0
    4.4250   -1.2248   -0.1144 N   0  0  0  0  0  0  0  0  0  0  0  0
    3.1067   -0.6676   -0.1940 C   0  0  0  0  0  0  0  0  0  0  0  0
    2.0682   -1.3391   -0.7481 N   0  0  0  0  0  0  0  0  0  0  0  0
    0.9303   -0.6011   -0.6913 C   0  0  0  0  0  0  0  0  0  0  0  0
    1.0607    0.6435   -0.0979 C   0  0  0  0  0  0  0  0  0  0  0  0
    2.6520    0.8611    0.3887 S   0  0  0  0  0  0  0  0  0  0  0  0
   -0.0145    1.5172    0.0347 C   0  0  0  0  0  0  0  0  0  0  0  0
   -1.2758    1.1065   -0.4409 C   0  0  0  0  0  0  0  0  0  0  0  0
   -1.4076   -0.1572   -1.0681 C   0  0  0  0  0  0  0  0  0  0  0  0
   -0.3039   -1.0182   -1.1874 C   0  0  0  0  0  0  0  0  0  0  0  0
   -2.4271    2.0251   -0.3210 C   0  0  0  0  0  0  0  0  0  0  0  0
   -3.7701    1.7268   -0.1392 C   0  0  0  0  0  0  0  0  0  0  0  0
   -4.4754    2.8748   -0.1449 N   0  0  0  0  0  0  0  0  0  0  0  0
   -3.5344    3.8273   -0.3101 C   0  0  0  0  0  0  0  0  0  0  0  0
   -2.3232    3.3284   -0.4083 O   0  0  0  0  0  0  0  0  0  0  0  0
   -4.3899    0.4086    0.1018 C   0  0  0  0  0  0  0  0  0  0  0  0
   -5.5582    0.0591   -0.5944 C   0  0  0  0  0  0  0  0  0  0  0  0
   -6.1641   -1.1821   -0.3787 C   0  0  0  0  0  0  0  0  0  0  0  0
   -5.6174   -2.0773    0.5437 C   0  0  0  0  0  0  0  0  0  0  0  0
   -4.4695   -1.7289    1.2598 C   0  0  0  0  0  0  0  0  0  0  0  0
   -3.8584   -0.4883    1.0491 C   0  0  0  0  0  0  0  0  0  0  0  0
   -2.7743   -0.1527    1.7934 F   0  0  0  0  0  0  0  0  0  0  0  0
    6.9713    1.0575   -0.1971 H   0  0  0  0  0  0  0  0  0  0  0  0
    5.3212    1.2251   -0.8919 H   0  0  0  0  0  0  0  0  0  0  0  0
    6.4321   -0.0476   -1.5243 H   0  0  0  0  0  0  0  0  0  0  0  0
    5.2531    0.0738    1.3368 H   0  0  0  0  0  0  0  0  0  0  0  0
    7.0427   -2.0459   -0.0115 H   0  0  0  0  0  0  0  0  0  0  0  0
    6.2700   -2.1764    1.6166 H   0  0  0  0  0  0  0  0  0  0  0  0
    7.5190   -0.9139    1.3161 H   0  0  0  0  0  0  0  0  0  0  0  0
    4.5608   -2.2000   -0.4664 H   0  0  0  0  0  0  0  0  0  0  0  0
    0.1220    2.4829    0.5056 H   0  0  0  0  0  0  0  0  0  0  0  0
   -2.3564   -0.4706   -1.4827 H   0  0  0  0  0  0  0  0  0  0  0  0
   -0.4105   -1.9841   -1.6643 H   0  0  0  0  0  0  0  0  0  0  0  0
   -3.7551    4.8853   -0.3552 H   0  0  0  0  0  0  0  0  0  0  0  0
   -5.9919    0.7417   -1.3152 H   0  0  0  0  0  0  0  0  0  0  0  0
   -7.0582   -1.4498   -0.9269 H   0  0  0  0  0  0  0  0  0  0  0  0
   -6.0885   -3.0374    0.7105 H   0  0  0  0  0  0  0  0  0  0  0  0
   -4.0585   -2.4180    1.9864 H   0  0  0  0  0  0  0  0  0  0  0  0
  1  2  1  0
  2  3  1  0
  2  4  1  0
  4  5  1  0
  5  6  2  0
  6  7  1  0
  7  8  2  0
  8  9  1  0
  8 10  1  0
 10 11  2  0
 11 12  1  0
 12 13  2  0
 11 14  1  0
 14 15  2  0
 15 16  1  0
 16 17  2  0
 17 18  1  0
 15 19  1  0
 19 20  2  0
 20 21  1  0
 21 22  2  0
 22 23  1  0
 23 24  2  0
 24 25  1  0
  9  5  1  0
 18 14  1  0
 24 19  1  0
 13  7  1  0
  1 26  1  0
  1 27  1  0
  1 28  1  0
  2 29  1  0
  3 30  1  0
  3 31  1  0
  3 32  1  0
  4 33  1  0
 10 34  1  0
 12 35  1  0
 13 36  1  0
 17 37  1  0
 20 38  1  0
 21 39  1  0
 22 40  1  0
 23 41  1  0
M  END
$$$$
