
     RDKit          3D

 48 51  0  0  0  0  0  0  0  0999 V2000
    5.3407   -4.9261    1.2579 N   0  0  0  0  0  0  0  0  0  0  0  0
    5.5417   -3.8344   -0.0669 S   0  0  0  0  0  6  0  0  0  0  0  0
    5.4080   -4.5825   -1.3632 O   0  0  0  0  0  0  0  0  0  0  0  0
    6.9061   -3.2072   -0.0038 O   0  0  0  0  0  0  0  0  0  0  0  0
    4.3173   -2.5830    0.0145 C   0  0  0  0  0  0  0  0  0  0  0  0
    3.0195   -2.6947   -0.4730 C   0  0  0  0  0  0  0  0  0  0  0  0
    2.2581   -1.5416   -0.2461 C   0  0  0  0  0  0  0  0  0  0  0  0
    2.9631   -0.5620    0.4163 C   0  0  0  0  0  0  0  0  0  0  0  0
    4.5293   -1.0751    0.7386 S   0  0  0  0  0  0  0  0  0  0  0  0
    2.2501    0.9531    0.8433 S   0  0  0  0  0  6  0  0  0  0  0  0
    2.0895    1.0532    2.3337 O   0  0  0  0  0  0  0  0  0  0  0  0
    3.0947    2.0816    0.3224 O   0  0  0  0  0  0  0  0  0  0  0  0
    0.6988    0.9611    0.0665 N   0  0  0  0  0  0  0  0  0  0  0  0
    0.1213   -0.2580   -0.4803 C   0  0  0  0  0  0  0  0  0  0  0  0
   -1.3386   -0.2729   -0.8885 C   0  0  0  0  0  0  0  0  0  0  0  0
   -2.1831    0.1710    0.2422 N   0  0  0  0  0  0  0  0  0  0  0  0
   -3.4525    0.7692   -0.2119 C   0  0  0  0  0  0  0  0  0  0  0  0
   -4.4223   -0.2988   -0.7712 C   0  0  0  0  0  0  0  0  0  0  0  0
   -4.0730   -1.6214   -0.3991 O   0  0  0  0  0  0  0  0  0  0  0  0
   -3.7356   -1.6680    0.9702 C   0  0  0  0  0  0  0  0  0  0  0  0
   -2.4197   -0.9077    1.2304 C   0  0  0  0  0  0  0  0  0  0  0  0
    0.8430   -1.3937   -0.6375 C   0  0  0  0  0  0  0  0  0  0  0  0
    0.0199    2.2204   -0.0430 C   0  0  0  0  0  0  0  0  0  0  0  0
   -0.1690    2.8141   -1.2999 C   0  0  0  0  0  0  0  0  0  0  0  0
   -0.8482    4.0324   -1.4101 C   0  0  0  0  0  0  0  0  0  0  0  0
   -1.0342    4.6047   -2.6663 O   0  0  0  0  0  0  0  0  0  0  0  0
   -1.3350    4.6646   -0.2574 C   0  0  0  0  0  0  0  0  0  0  0  0
   -1.1395    4.0809    0.9975 C   0  0  0  0  0  0  0  0  0  0  0  0
   -0.4611    2.8640    1.1063 C   0  0  0  0  0  0  0  0  0  0  0  0
    5.4772   -4.3722    2.1330 H   0  0  0  0  0  0  0  0  0  0  0  0
    6.1263   -5.6129    1.2099 H   0  0  0  0  0  0  0  0  0  0  0  0
    2.6399   -3.5793   -0.9680 H   0  0  0  0  0  0  0  0  0  0  0  0
   -1.4470    0.4077   -1.7598 H   0  0  0  0  0  0  0  0  0  0  0  0
   -1.6612   -1.2766   -1.2465 H   0  0  0  0  0  0  0  0  0  0  0  0
   -3.2678    1.5643   -0.9679 H   0  0  0  0  0  0  0  0  0  0  0  0
   -3.9333    1.2755    0.6540 H   0  0  0  0  0  0  0  0  0  0  0  0
   -4.4068   -0.2432   -1.8802 H   0  0  0  0  0  0  0  0  0  0  0  0
   -5.4636   -0.0778   -0.4484 H   0  0  0  0  0  0  0  0  0  0  0  0
   -4.5590   -1.2492    1.5944 H   0  0  0  0  0  0  0  0  0  0  0  0
   -3.6109   -2.7294    1.2720 H   0  0  0  0  0  0  0  0  0  0  0  0
   -1.5716   -1.6285    1.2465 H   0  0  0  0  0  0  0  0  0  0  0  0
   -2.4618   -0.4564    2.2448 H   0  0  0  0  0  0  0  0  0  0  0  0
    0.3694   -2.2677   -1.0693 H   0  0  0  0  0  0  0  0  0  0  0  0
    0.2094    2.3274   -2.1902 H   0  0  0  0  0  0  0  0  0  0  0  0
   -1.5224    5.4854   -2.7797 H   0  0  0  0  0  0  0  0  0  0  0  0
   -1.8630    5.6066   -0.3332 H   0  0  0  0  0  0  0  0  0  0  0  0
   -1.5170    4.5703    1.8860 H   0  0  0  0  0  0  0  0  0  0  0  0
   -0.3263    2.4127    2.0808 H   0  0  0  0  0  0  0  0  0  0  0  0
  1  2  1  0
  2  3  2  0
  2  4  2  0
  2  5  1  0
  5  6  2  0
  6  7  1  0
  7  8  2  0
  8  9  1  0
  8 10  1  0
 10 11  2  0
 10 12  2  0
 10 13  1  0
 13 14  1  0
 14 15  1  0
 15 16  1  0
 16 17  1  0
 17 18  1  0
 18 19  1  0
 19 20  1  0
 20 21  1  0
 14 22  2  0
 13 23  1  0
 23 24  2  0
 24 25  1  0
 25 26  1  0
 25 27  2  0
 27 28  1  0
 28 29  2  0
  9  5  1  0
 21 16  1  0
 29 23  1  0
 22  7  1  0
  1 30  1  0
  1 31  1  0
  6 32  1  0
 15 33  1  0
 15 34  1  0
 17 35  1  0
 17 36  1  0
 18 37  1  0
 18 38  1  0
 20 39  1  0
 20 40  1  0
 21 41  1  0
 21 42  1  0
 22 43  1  0
 24 44  1  0
 26 45  1  0
 27 46  1  0
 28 47  1  0
 29 48  1  0
M  END
$$$$
