
     RDKit          3D

 47 49  0  0  0  0  0  0  0  0999 V2000
   -2.6984    5.1832    1.8129 C   0  0  0  0  0  0  0  0  0  0  0  0
   -2.2723    3.8906    1.3994 O   0  0  0  0  0  0  0  0  0  0  0  0
   -3.1085    2.7694    1.4425 C   0  0  0  0  0  0  0  0  0  0  0  0
   -4.2940    2.8832    1.8609 O   0  0  0  0  0  0  0  0  0  0  0  0
   -2.6003    1.4521    0.9961 C   0  0  0  0  0  0  0  0  0  0  0  0
   -3.4251    0.3179    1.0323 C   0  0  0  0  0  0  0  0  0  0  0  0
   -2.9438   -0.9301    0.6128 C   0  0  0  0  0  0  0  0  0  0  0  0
   -3.7823   -2.0530    0.6532 C   0  0  0  0  0  0  0  0  0  0  0  0
   -3.3199   -3.2962    0.2226 C   0  0  0  0  0  0  0  0  0  0  0  0
   -2.0140   -3.4407   -0.2676 C   0  0  0  0  0  0  0  0  0  0  0  0
   -1.1664   -2.3190   -0.3051 C   0  0  0  0  0  0  0  0  0  0  0  0
   -1.6127   -1.0582    0.1434 C   0  0  0  0  0  0  0  0  0  0  0  0
   -0.7758    0.0834    0.1128 C   0  0  0  0  0  0  0  0  0  0  0  0
    0.6012   -0.0124   -0.2917 N   0  0  0  0  0  0  0  0  0  0  0  0
    1.2198    0.9375   -1.1724 C   0  0  0  0  0  0  0  0  0  0  0  0
    0.5056    1.6935   -1.8862 O   0  0  0  0  0  0  0  0  0  0  0  0
    2.6921    0.9893   -1.3081 C   0  0  0  0  0  0  0  0  0  0  0  0
    3.2388    1.0176   -2.6017 C   0  0  0  0  0  0  0  0  0  0  0  0
    4.6200    1.0170   -2.7897 C   0  0  0  0  0  0  0  0  0  0  0  0
    5.4752    0.9884   -1.6905 C   0  0  0  0  0  0  0  0  0  0  0  0
    4.9562    0.9836   -0.3897 C   0  0  0  0  0  0  0  0  0  0  0  0
    5.8278    0.9530    0.6996 O   0  0  0  0  0  0  0  0  0  0  0  0
    3.5597    1.0130   -0.1832 C   0  0  0  0  0  0  0  0  0  0  0  0
    3.0244    1.0632    1.2282 C   0  0  0  0  0  0  0  0  0  0  0  0
   -1.2803    1.3228    0.5399 C   0  0  0  0  0  0  0  0  0  0  0  0
   -1.5391   -4.7677   -0.7346 C   0  0  0  0  0  0  0  0  0  0  0  0
   -1.9372   -5.9564   -0.0468 N   0  0  0  0  0  0  0  0  0  0  0  0
   -0.7702   -4.8731   -1.7738 N   0  0  0  0  0  0  0  0  0  0  0  0
   -2.9938    5.1617    2.8833 H   0  0  0  0  0  0  0  0  0  0  0  0
   -1.8622    5.9007    1.6851 H   0  0  0  0  0  0  0  0  0  0  0  0
   -3.5572    5.5169    1.1927 H   0  0  0  0  0  0  0  0  0  0  0  0
   -4.4459    0.4042    1.3871 H   0  0  0  0  0  0  0  0  0  0  0  0
   -4.8012   -1.9684    1.0127 H   0  0  0  0  0  0  0  0  0  0  0  0
   -3.9958   -4.1417    0.2489 H   0  0  0  0  0  0  0  0  0  0  0  0
   -0.1600   -2.4418   -0.6799 H   0  0  0  0  0  0  0  0  0  0  0  0
    1.1768   -0.8094    0.0602 H   0  0  0  0  0  0  0  0  0  0  0  0
    2.5923    1.0159   -3.4711 H   0  0  0  0  0  0  0  0  0  0  0  0
    5.0288    1.0261   -3.7919 H   0  0  0  0  0  0  0  0  0  0  0  0
    6.5459    0.9741   -1.8501 H   0  0  0  0  0  0  0  0  0  0  0  0
    6.8335    0.9327    0.5761 H   0  0  0  0  0  0  0  0  0  0  0  0
    2.0670    1.6225    1.2755 H   0  0  0  0  0  0  0  0  0  0  0  0
    3.7286    1.5908    1.9051 H   0  0  0  0  0  0  0  0  0  0  0  0
    2.8725    0.0317    1.6079 H   0  0  0  0  0  0  0  0  0  0  0  0
   -0.6256    2.1854    0.5365 H   0  0  0  0  0  0  0  0  0  0  0  0
   -1.6377   -6.8937   -0.3971 H   0  0  0  0  0  0  0  0  0  0  0  0
   -2.4865   -5.9098    0.8397 H   0  0  0  0  0  0  0  0  0  0  0  0
   -0.4599   -4.0495   -2.3359 H   0  0  0  0  0  0  0  0  0  0  0  0
  1  2  1  0
  2  3  1  0
  3  4  2  0
  3  5  1  0
  5  6  2  0
  6  7  1  0
  7  8  2  0
  8  9  1  0
  9 10  2  0
 10 11  1  0
 11 12  2  0
 12 13  1  0
 13 14  1  0
 14 15  1  0
 15 16  2  0
 15 17  1  0
 17 18  2  0
 18 19  1  0
 19 20  2  0
 20 21  1  0
 21 22  1  0
 21 23  2  0
 23 24  1  0
 13 25  2  0
 10 26  1  0
 26 27  1  0
 26 28  2  3
 25  5  1  0
 12  7  1  0
 23 17  1  0
  1 29  1  0
  1 30  1  0
  1 31  1  0
  6 32  1  0
  8 33  1  0
  9 34  1  0
 11 35  1  0
 14 36  1  0
 18 37  1  0
 19 38  1  0
 20 39  1  0
 22 40  1  0
 24 41  1  0
 24 42  1  0
 24 43  1  0
 25 44  1  0
 27 45  1  0
 27 46  1  0
 28 47  1  0
M  END
$$$$
