
     RDKit          3D

 42 44  0  0  0  0  0  0  0  0999 V2000
    1.0135    1.9375    2.3892 C   0  0  0  0  0  0  0  0  0  0  0  0
    1.1652    1.0257    1.2045 C   0  0  0  0  0  0  0  0  0  0  0  0
    2.4054    0.8697    0.6798 N   0  0  0  0  0  0  0  0  0  0  0  0
    2.6746    0.0783   -0.3894 C   0  0  0  0  0  0  0  0  0  0  0  0
    4.0823   -0.0049   -0.8620 C   0  0  0  0  0  0  0  0  0  0  0  0
    4.4017   -0.8088   -1.7800 O   0  0  0  0  0  0  0  0  0  0  0  0
    5.0960    0.8260   -0.2706 N   0  0  0  0  0  0  0  0  0  0  0  0
    6.5002    0.7445   -0.6650 C   0  0  0  0  0  0  0  0  0  0  0  0
    7.1145   -0.5079   -0.1272 C   0  0  0  0  0  0  0  0  0  0  0  0
    7.3546   -0.6290    1.2377 O   0  0  0  0  0  0  0  0  0  0  0  0
    7.3933   -1.4605   -0.9034 O   0  0  0  0  0  0  0  0  0  0  0  0
    1.6224   -0.6297   -1.0109 C   0  0  0  0  0  0  0  0  0  0  0  0
    1.9152   -1.4178   -2.1310 O   0  0  0  0  0  0  0  0  0  0  0  0
    0.3062   -0.5111   -0.4876 C   0  0  0  0  0  0  0  0  0  0  0  0
   -0.7871   -1.2170   -1.0366 C   0  0  0  0  0  0  0  0  0  0  0  0
   -2.0701   -1.0745   -0.5085 C   0  0  0  0  0  0  0  0  0  0  0  0
   -2.3026   -0.2199    0.5751 C   0  0  0  0  0  0  0  0  0  0  0  0
   -3.5790   -0.0662    1.1369 O   0  0  0  0  0  0  0  0  0  0  0  0
   -4.7914   -0.1430    0.4356 C   0  0  0  0  0  0  0  0  0  0  0  0
   -4.8995    0.2509   -0.9117 C   0  0  0  0  0  0  0  0  0  0  0  0
   -6.1308    0.1747   -1.5701 C   0  0  0  0  0  0  0  0  0  0  0  0
   -7.2624   -0.2819   -0.8888 C   0  0  0  0  0  0  0  0  0  0  0  0
   -7.1654   -0.6558    0.4543 C   0  0  0  0  0  0  0  0  0  0  0  0
   -5.9353   -0.5803    1.1154 C   0  0  0  0  0  0  0  0  0  0  0  0
   -1.2310    0.4630    1.1504 C   0  0  0  0  0  0  0  0  0  0  0  0
    0.0753    0.3341    0.6327 C   0  0  0  0  0  0  0  0  0  0  0  0
    0.3198    2.7686    2.1423 H   0  0  0  0  0  0  0  0  0  0  0  0
    0.6255    1.3677    3.2596 H   0  0  0  0  0  0  0  0  0  0  0  0
    1.9938    2.3772    2.6720 H   0  0  0  0  0  0  0  0  0  0  0  0
    4.8338    1.5342    0.4512 H   0  0  0  0  0  0  0  0  0  0  0  0
    7.0516    1.6153   -0.2500 H   0  0  0  0  0  0  0  0  0  0  0  0
    6.5876    0.7848   -1.7727 H   0  0  0  0  0  0  0  0  0  0  0  0
    7.7608   -1.4743    1.6206 H   0  0  0  0  0  0  0  0  0  0  0  0
    1.2374   -1.9188   -2.6850 H   0  0  0  0  0  0  0  0  0  0  0  0
   -0.6819   -1.8986   -1.8640 H   0  0  0  0  0  0  0  0  0  0  0  0
   -2.8804   -1.6512   -0.9354 H   0  0  0  0  0  0  0  0  0  0  0  0
   -4.0400    0.6340   -1.4458 H   0  0  0  0  0  0  0  0  0  0  0  0
   -6.2093    0.4767   -2.6065 H   0  0  0  0  0  0  0  0  0  0  0  0
   -8.2151   -0.3391   -1.3991 H   0  0  0  0  0  0  0  0  0  0  0  0
   -8.0435   -1.0023    0.9838 H   0  0  0  0  0  0  0  0  0  0  0  0
   -5.8683   -0.8694    2.1565 H   0  0  0  0  0  0  0  0  0  0  0  0
   -1.4375    1.0989    2.0010 H   0  0  0  0  0  0  0  0  0  0  0  0
  1  2  1  0
  2  3  2  0
  3  4  1  0
  4  5  1  0
  5  6  2  0
  5  7  1  0
  7  8  1  0
  8  9  1  0
  9 10  1  0
  9 11  2  0
  4 12  2  0
 12 13  1  0
 12 14  1  0
 14 15  2  0
 15 16  1  0
 16 17  2  0
 17 18  1  0
 18 19  1  0
 19 20  2  0
 20 21  1  0
 21 22  2  0
 22 23  1  0
 23 24  2  0
 17 25  1  0
 25 26  2  0
 26  2  1  0
 26 14  1  0
 24 19  1  0
  1 27  1  0
  1 28  1  0
  1 29  1  0
  7 30  1  0
  8 31  1  0
  8 32  1  0
 10 33  1  0
 13 34  1  0
 15 35  1  0
 16 36  1  0
 20 37  1  0
 21 38  1  0
 22 39  1  0
 23 40  1  0
 24 41  1  0
 25 42  1  0
M  END
$$$$
