
     RDKit          3D

 35 37  0  0  0  0  0  0  0  0999 V2000
    2.3883   -2.6070   -0.8678 O   0  0  0  0  0  0  0  0  0  0  0  0
    2.5433   -1.4123   -0.1618 C   0  0  0  0  0  0  0  0  0  0  0  0
    3.4776   -1.3727    0.8788 C   0  0  0  0  0  0  0  0  0  0  0  0
    3.6490   -0.2161    1.6458 C   0  0  0  0  0  0  0  0  0  0  0  0
    4.5884   -0.2304    2.6775 O   0  0  0  0  0  0  0  0  0  0  0  0
    2.8763    0.9251    1.3637 C   0  0  0  0  0  0  0  0  0  0  0  0
    3.0465    2.4067    2.2953 Cl  0  0  0  0  0  0  0  0  0  0  0  0
    1.9502    0.8956    0.3162 C   0  0  0  0  0  0  0  0  0  0  0  0
    1.7736   -0.2653   -0.4527 C   0  0  0  0  0  0  0  0  0  0  0  0
    0.8169   -0.2406   -1.5752 C   0  0  0  0  0  0  0  0  0  0  0  0
   -0.5044    0.1685   -1.5502 C   0  0  0  0  0  0  0  0  0  0  0  0
   -0.9240    0.1236   -2.8662 C   0  0  0  0  0  0  0  0  0  0  0  0
    0.1045   -0.2788   -3.6395 N   0  0  0  0  0  0  0  0  0  0  0  0
    1.1507   -0.4919   -2.8552 N   0  0  0  0  0  0  0  0  0  0  0  0
   -1.3223    0.4550   -0.4006 N   0  0  0  0  0  0  0  0  0  0  0  0
   -2.3824    1.4664   -0.4723 C   0  0  0  0  0  0  0  0  0  0  0  0
   -3.7510    0.8466   -0.1211 C   0  0  0  0  0  0  0  0  0  0  0  0
   -3.6447   -0.3743    0.7018 N   0  0  0  0  0  0  0  0  0  0  0  0
   -2.5045   -0.3197    1.6227 C   0  0  0  0  0  0  0  0  0  0  0  0
   -1.2011   -0.3573    0.8180 C   0  0  0  0  0  0  0  0  0  0  0  0
    1.6821   -2.7374   -1.5806 H   0  0  0  0  0  0  0  0  0  0  0  0
    4.0678   -2.2532    1.1009 H   0  0  0  0  0  0  0  0  0  0  0  0
    4.7621    0.5710    3.2706 H   0  0  0  0  0  0  0  0  0  0  0  0
    1.3689    1.7835    0.0963 H   0  0  0  0  0  0  0  0  0  0  0  0
   -1.9164    0.3408   -3.2378 H   0  0  0  0  0  0  0  0  0  0  0  0
    2.0910   -0.7840   -3.2029 H   0  0  0  0  0  0  0  0  0  0  0  0
   -2.4260    1.9473   -1.4732 H   0  0  0  0  0  0  0  0  0  0  0  0
   -2.1491    2.2693    0.2605 H   0  0  0  0  0  0  0  0  0  0  0  0
   -4.2746    0.5811   -1.0641 H   0  0  0  0  0  0  0  0  0  0  0  0
   -4.3716    1.6092    0.4013 H   0  0  0  0  0  0  0  0  0  0  0  0
   -4.5195   -0.4646    1.2697 H   0  0  0  0  0  0  0  0  0  0  0  0
   -2.5361   -1.1931    2.3098 H   0  0  0  0  0  0  0  0  0  0  0  0
   -2.5501    0.6050    2.2419 H   0  0  0  0  0  0  0  0  0  0  0  0
   -0.9906   -1.4134    0.5388 H   0  0  0  0  0  0  0  0  0  0  0  0
   -0.3690    0.0174    1.4482 H   0  0  0  0  0  0  0  0  0  0  0  0
  1  2  1  0
  2  3  2  0
  3  4  1  0
  4  5  1  0
  4  6  2  0
  6  7  1  0
  6  8  1  0
  8  9  2  0
  9 10  1  0
 10 11  2  0
 11 12  1  0
 12 13  2  0
 13 14  1  0
 11 15  1  0
 15 16  1  0
 16 17  1  0
 17 18  1  0
 18 19  1  0
 19 20  1  0
  9  2  1  0
 14 10  1  0
 20 15  1  0
  1 21  1  0
  3 22  1  0
  5 23  1  0
  8 24  1  0
 12 25  1  0
 14 26  1  0
 16 27  1  0
 16 28  1  0
 17 29  1  0
 17 30  1  0
 18 31  1  0
 19 32  1  0
 19 33  1  0
 20 34  1  0
 20 35  1  0
M  END
$$$$
