
     RDKit          3D

 22 22  0  0  0  0  0  0  0  0999 V2000
   -3.8096   -0.3074   -0.0508 N   0  0  0  0  0  0  0  0  0  0  0  0
   -2.3826   -0.2699    0.2612 C   0  0  0  0  0  0  0  0  0  0  0  0
   -1.5599    0.2044   -0.9442 C   0  0  0  0  0  0  0  0  0  0  0  0
   -0.0937    0.2367   -0.6045 C   0  0  0  0  0  0  0  0  0  0  0  0
    0.7017   -0.9056   -0.7897 C   0  0  0  0  0  0  0  0  0  0  0  0
    2.0607   -0.8875   -0.4438 C   0  0  0  0  0  0  0  0  0  0  0  0
    2.8522   -2.0188   -0.6340 O   0  0  0  0  0  0  0  0  0  0  0  0
    2.6277    0.2732    0.0985 C   0  0  0  0  0  0  0  0  0  0  0  0
    3.9788    0.2883    0.4401 O   0  0  0  0  0  0  0  0  0  0  0  0
    1.8328    1.4104    0.2967 C   0  0  0  0  0  0  0  0  0  0  0  0
    0.4786    1.3912   -0.0478 C   0  0  0  0  0  0  0  0  0  0  0  0
   -3.9611   -0.9496   -0.8626 H   0  0  0  0  0  0  0  0  0  0  0  0
   -4.1175    0.6496   -0.3400 H   0  0  0  0  0  0  0  0  0  0  0  0
   -2.2188    0.4161    1.1211 H   0  0  0  0  0  0  0  0  0  0  0  0
   -2.0523   -1.2876    0.5644 H   0  0  0  0  0  0  0  0  0  0  0  0
   -1.8975    1.2184   -1.2522 H   0  0  0  0  0  0  0  0  0  0  0  0
   -1.7316   -0.4770   -1.8061 H   0  0  0  0  0  0  0  0  0  0  0  0
    0.2658   -1.8082   -1.2006 H   0  0  0  0  0  0  0  0  0  0  0  0
    2.4710   -2.8732   -1.0233 H   0  0  0  0  0  0  0  0  0  0  0  0
    4.4165    1.1126    0.8349 H   0  0  0  0  0  0  0  0  0  0  0  0
    2.2631    2.3088    0.7208 H   0  0  0  0  0  0  0  0  0  0  0  0
   -0.1242    2.2752    0.1202 H   0  0  0  0  0  0  0  0  0  0  0  0
  1  2  1  0
  2  3  1  0
  3  4  1  0
  4  5  2  0
  5  6  1  0
  6  7  1  0
  6  8  2  0
  8  9  1  0
  8 10  1  0
 10 11  2  0
 11  4  1  0
  1 12  1  0
  1 13  1  0
  2 14  1  0
  2 15  1  0
  3 16  1  0
  3 17  1  0
  5 18  1  0
  7 19  1  0
  9 20  1  0
 10 21  1  0
 11 22  1  0
M  END
$$$$
