
     RDKit          3D

 38 40  0  0  0  0  0  0  0  0999 V2000
   -1.0567    2.7642   -1.4977 N   0  0  0  0  0  0  0  0  0  0  0  0
   -1.8218    1.5702   -1.3350 C   0  0  0  0  0  0  0  0  0  0  0  0
   -1.3349    0.5577   -0.5541 N   0  0  0  0  0  0  0  0  0  0  0  0
   -2.0867   -0.5597   -0.4122 C   0  0  0  0  0  0  0  0  0  0  0  0
   -3.2853   -0.7112   -1.0165 C   0  0  0  0  0  0  0  0  0  0  0  0
   -3.8081   -1.9198   -0.7367 N   0  0  0  0  0  0  0  0  0  0  0  0
   -2.8597   -2.4770    0.0666 C   0  0  0  0  0  0  0  0  0  0  0  0
   -1.7972   -1.6616    0.2933 N   0  0  0  0  0  0  0  0  0  0  0  0
   -0.5722   -1.9913    1.0256 C   0  0  2  0  0  0  0  0  0  0  0  0
   -0.1047   -0.8499    1.7156 O   0  0  0  0  0  0  0  0  0  0  0  0
    1.2675   -0.7177    1.4288 C   0  0  2  0  0  0  0  0  0  0  0  0
    1.6576    0.7634    1.4358 C   0  0  0  0  0  0  0  0  0  0  0  0
    3.0467    0.8837    1.2375 O   0  0  0  0  0  0  0  0  0  0  0  0
    3.4303    2.5288    0.9913 P   0  0  0  0  0  5  0  0  0  0  0  0
    3.3116    2.8990   -0.6569 O   0  0  0  0  0  0  0  0  0  0  0  0
    2.4066    3.5445    1.8829 O   0  0  0  0  0  0  0  0  0  0  0  0
    4.8542    2.7645    1.4387 O   0  0  0  0  0  0  0  0  0  0  0  0
    1.5281   -1.3765    0.0818 C   0  0  1  0  0  0  0  0  0  0  0  0
    2.8477   -1.8503   -0.0008 O   0  0  0  0  0  0  0  0  0  0  0  0
    0.5115   -2.4927    0.0617 C   0  0  1  0  0  0  0  0  0  0  0  0
    1.0759   -3.6871    0.5421 O   0  0  0  0  0  0  0  0  0  0  0  0
   -3.7910    0.3042   -1.8148 C   0  0  0  0  0  0  0  0  0  0  0  0
   -4.9042    0.1861   -2.3927 O   0  0  0  0  0  0  0  0  0  0  0  0
   -3.0419    1.4402   -1.9585 N   0  0  0  0  0  0  0  0  0  0  0  0
   -0.1364    2.8703   -1.0167 H   0  0  0  0  0  0  0  0  0  0  0  0
   -1.4089    3.5466   -2.0925 H   0  0  0  0  0  0  0  0  0  0  0  0
   -2.9418   -3.4780    0.4703 H   0  0  0  0  0  0  0  0  0  0  0  0
   -0.8087   -2.7748    1.7803 H   0  0  0  0  0  0  0  0  0  0  0  0
    1.8426   -1.2433    2.2259 H   0  0  0  0  0  0  0  0  0  0  0  0
    1.0787    1.2871    0.6415 H   0  0  0  0  0  0  0  0  0  0  0  0
    1.3817    1.1883    2.4267 H   0  0  0  0  0  0  0  0  0  0  0  0
    2.4178    2.5739   -0.9308 H   0  0  0  0  0  0  0  0  0  0  0  0
    1.6406    3.7297    1.2829 H   0  0  0  0  0  0  0  0  0  0  0  0
    1.3150   -0.6625   -0.7495 H   0  0  0  0  0  0  0  0  0  0  0  0
    2.9898   -2.1184   -0.9460 H   0  0  0  0  0  0  0  0  0  0  0  0
    0.1280   -2.6398   -0.9760 H   0  0  0  0  0  0  0  0  0  0  0  0
    0.4317   -4.4102    0.3232 H   0  0  0  0  0  0  0  0  0  0  0  0
   -3.4033    2.2196   -2.5538 H   0  0  0  0  0  0  0  0  0  0  0  0
  1  2  1  0
  2  3  2  0
  3  4  1  0
  4  5  2  0
  5  6  1  0
  6  7  2  0
  7  8  1  0
  8  9  1  0
  9 10  1  0
 10 11  1  0
 11 12  1  0
 12 13  1  0
 13 14  1  0
 14 15  1  0
 14 16  1  0
 14 17  2  0
 11 18  1  0
 18 19  1  0
 18 20  1  0
 20 21  1  0
  5 22  1  0
 22 23  2  0
 22 24  1  0
 24  2  1  0
  8  4  1  0
 20  9  1  0
  1 25  1  0
  1 26  1  0
  7 27  1  0
  9 28  1  1
 11 29  1  1
 12 30  1  0
 12 31  1  0
 15 32  1  0
 16 33  1  0
 18 34  1  6
 19 35  1  0
 20 36  1  6
 21 37  1  0
 24 38  1  0
M  END
$$$$
