
     RDKit          3D

 63 67  0  0  0  0  0  0  0  0999 V2000
    2.6353   -0.3995    0.5342 C   0  0  1  0  0  0  0  0  0  0  0  0
    2.8693    1.1069    0.8260 C   0  0  0  0  0  0  0  0  0  0  0  0
    1.4827    1.7738    0.8602 C   0  0  0  0  0  0  0  0  0  0  0  0
    0.5093    0.6067    0.7737 C   0  0  1  0  0  0  0  0  0  0  0  0
   -0.9456    0.8864    0.3397 C   0  0  2  0  0  0  0  0  0  0  0  0
   -1.6017    1.9103    1.2789 C   0  0  0  0  0  0  0  0  0  0  0  0
   -3.0919    1.9888    1.1165 C   0  0  0  0  0  0  0  0  0  0  0  0
   -3.8439    0.9851    0.6289 C   0  0  0  0  0  0  0  0  0  0  0  0
   -5.3187    1.0973    0.7369 C   0  0  0  0  0  0  0  0  0  0  0  0
   -6.1367    0.0580    0.4939 C   0  0  0  0  0  0  0  0  0  0  0  0
   -5.5941   -1.2751    0.0248 C   0  0  0  0  0  0  0  0  0  0  0  0
   -4.0973   -1.4641    0.3224 C   0  0  0  0  0  0  0  0  0  0  0  0
   -3.2399   -0.2300   -0.0753 C   0  0  1  0  0  0  0  0  0  0  0  0
   -3.3406    0.0003   -1.6086 C   0  0  0  0  0  0  0  0  0  0  0  0
   -1.7492   -0.4506    0.3835 C   0  0  1  0  0  0  0  0  0  0  0  0
   -1.0189   -1.6141   -0.3638 C   0  0  0  0  0  0  0  0  0  0  0  0
    0.4658   -1.7655    0.0410 C   0  0  0  0  0  0  0  0  0  0  0  0
    1.2224   -0.4269   -0.1099 C   0  0  2  0  0  0  0  0  0  0  0  0
    1.2928   -0.0042   -1.6170 C   0  0  0  0  0  0  0  0  0  0  0  0
   -7.6042    0.2274    0.6084 C   0  0  0  0  0  0  0  0  0  0  0  0
   -8.1487    1.4322    1.0472 O   0  0  0  0  0  0  0  0  0  0  0  0
   -8.3756   -0.7228    0.3061 O   0  0  0  0  0  0  0  0  0  0  0  0
    3.7548   -1.0552   -0.2615 C   0  0  0  0  0  0  0  0  0  0  0  0
    3.4871   -2.0019   -1.0497 O   0  0  0  0  0  0  0  0  0  0  0  0
    5.1775   -0.7013   -0.0549 C   0  0  0  0  0  0  0  0  0  0  0  0
    5.6769   -0.4187    1.2287 C   0  0  0  0  0  0  0  0  0  0  0  0
    7.0257   -0.0964    1.4070 C   0  0  0  0  0  0  0  0  0  0  0  0
    7.8927   -0.0636    0.3107 C   0  0  0  0  0  0  0  0  0  0  0  0
    9.2337    0.2606    0.5033 O   0  0  0  0  0  0  0  0  0  0  0  0
    7.4058   -0.3607   -0.9689 C   0  0  0  0  0  0  0  0  0  0  0  0
    6.0576   -0.6838   -1.1499 C   0  0  0  0  0  0  0  0  0  0  0  0
    2.5902   -0.9310    1.5125 H   0  0  0  0  0  0  0  0  0  0  0  0
    3.4889    1.5819    0.0336 H   0  0  0  0  0  0  0  0  0  0  0  0
    3.3779    1.2408    1.8048 H   0  0  0  0  0  0  0  0  0  0  0  0
    1.3543    2.4565   -0.0081 H   0  0  0  0  0  0  0  0  0  0  0  0
    1.3364    2.3483    1.8009 H   0  0  0  0  0  0  0  0  0  0  0  0
    0.4480    0.1932    1.8118 H   0  0  0  0  0  0  0  0  0  0  0  0
   -0.9505    1.3284   -0.6738 H   0  0  0  0  0  0  0  0  0  0  0  0
   -1.3939    1.6469    2.3389 H   0  0  0  0  0  0  0  0  0  0  0  0
   -1.1708    2.9168    1.0883 H   0  0  0  0  0  0  0  0  0  0  0  0
   -3.5777    2.8392    1.5816 H   0  0  0  0  0  0  0  0  0  0  0  0
   -5.7383    2.0421    1.0639 H   0  0  0  0  0  0  0  0  0  0  0  0
   -5.7752   -1.3720   -1.0669 H   0  0  0  0  0  0  0  0  0  0  0  0
   -6.1502   -2.0980    0.5241 H   0  0  0  0  0  0  0  0  0  0  0  0
   -3.9814   -1.6628    1.4115 H   0  0  0  0  0  0  0  0  0  0  0  0
   -3.7581   -2.3721   -0.2187 H   0  0  0  0  0  0  0  0  0  0  0  0
   -3.1471   -0.9370   -2.1703 H   0  0  0  0  0  0  0  0  0  0  0  0
   -2.6344    0.7762   -1.9611 H   0  0  0  0  0  0  0  0  0  0  0  0
   -4.3557    0.3464   -1.8969 H   0  0  0  0  0  0  0  0  0  0  0  0
   -1.7822   -0.7604    1.4545 H   0  0  0  0  0  0  0  0  0  0  0  0
   -1.5197   -2.5770   -0.1346 H   0  0  0  0  0  0  0  0  0  0  0  0
   -1.0739   -1.4775   -1.4611 H   0  0  0  0  0  0  0  0  0  0  0  0
    0.9375   -2.5479   -0.5911 H   0  0  0  0  0  0  0  0  0  0  0  0
    0.5157   -2.1200    1.0944 H   0  0  0  0  0  0  0  0  0  0  0  0
    1.7084   -0.8213   -2.2394 H   0  0  0  0  0  0  0  0  0  0  0  0
    0.3022    0.2236   -2.0508 H   0  0  0  0  0  0  0  0  0  0  0  0
    1.9320    0.8900   -1.7667 H   0  0  0  0  0  0  0  0  0  0  0  0
   -9.1515    1.5520    1.1261 H   0  0  0  0  0  0  0  0  0  0  0  0
    5.0320   -0.4679    2.0963 H   0  0  0  0  0  0  0  0  0  0  0  0
    7.3991    0.1209    2.3996 H   0  0  0  0  0  0  0  0  0  0  0  0
    9.8872    0.2917   -0.2705 H   0  0  0  0  0  0  0  0  0  0  0  0
    8.0706   -0.3419   -1.8231 H   0  0  0  0  0  0  0  0  0  0  0  0
    5.6979   -0.9075   -2.1468 H   0  0  0  0  0  0  0  0  0  0  0  0
  1  2  1  0
  2  3  1  0
  3  4  1  0
  4  5  1  0
  5  6  1  0
  6  7  1  0
  7  8  2  0
  8  9  1  0
  9 10  2  0
 10 11  1  0
 11 12  1  0
 12 13  1  0
 13 14  1  6
 13 15  1  0
 15 16  1  0
 16 17  1  0
 17 18  1  0
 18 19  1  6
 10 20  1  0
 20 21  1  0
 20 22  2  0
  1 23  1  0
 23 24  2  0
 23 25  1  0
 25 26  2  0
 26 27  1  0
 27 28  2  0
 28 29  1  0
 28 30  1  0
 30 31  2  0
 18  1  1  0
 31 25  1  0
 18  4  1  0
 15  5  1  0
 13  8  1  0
  1 32  1  1
  2 33  1  0
  2 34  1  0
  3 35  1  0
  3 36  1  0
  4 37  1  1
  5 38  1  6
  6 39  1  0
  6 40  1  0
  7 41  1  0
  9 42  1  0
 11 43  1  0
 11 44  1  0
 12 45  1  0
 12 46  1  0
 14 47  1  0
 14 48  1  0
 14 49  1  0
 15 50  1  1
 16 51  1  0
 16 52  1  0
 17 53  1  0
 17 54  1  0
 19 55  1  0
 19 56  1  0
 19 57  1  0
 21 58  1  0
 26 59  1  0
 27 60  1  0
 29 61  1  0
 30 62  1  0
 31 63  1  0
M  END
$$$$
