
     RDKit          3D

 49 53  0  0  0  0  0  0  0  0999 V2000
    0.6890    0.3365   -1.0561 C   0  0  2  0  0  0  0  0  0  0  0  0
    0.4839   -0.7777   -2.1240 C   0  0  0  0  0  0  0  0  0  0  0  0
    0.8026   -2.2058   -1.6644 C   0  0  0  0  0  0  0  0  0  0  0  0
    1.3847   -0.1175    0.1549 N   0  0  0  0  0  0  0  0  0  0  0  0
    2.7914   -0.4067    0.1732 C   0  0  0  0  0  0  0  0  0  0  0  0
    3.5664   -0.2384   -0.9424 N   0  0  0  0  0  0  0  0  0  0  0  0
    4.9089   -0.5204   -0.9324 C   0  0  0  0  0  0  0  0  0  0  0  0
    5.5122   -0.9825    0.2043 N   0  0  0  0  0  0  0  0  0  0  0  0
    4.7435   -1.1471    1.3068 C   0  0  0  0  0  0  0  0  0  0  0  0
    3.4198   -0.8754    1.3219 C   0  0  0  0  0  0  0  0  0  0  0  0
    2.9015   -1.1359    2.5356 N   0  0  0  0  0  0  0  0  0  0  0  0
    3.9867   -1.5720    3.2335 C   0  0  0  0  0  0  0  0  0  0  0  0
    5.1317   -1.5902    2.5055 N   0  0  0  0  0  0  0  0  0  0  0  0
   -0.5905    1.0965   -0.7090 C   0  0  0  0  0  0  0  0  0  0  0  0
   -0.5813    2.4335   -0.9556 N   0  0  0  0  0  0  0  0  0  0  0  0
   -1.6383    3.2297   -0.6776 C   0  0  0  0  0  0  0  0  0  0  0  0
   -1.5685    4.5991   -0.9573 C   0  0  0  0  0  0  0  0  0  0  0  0
   -2.6550    5.4279   -0.6719 C   0  0  0  0  0  0  0  0  0  0  0  0
   -3.8139    4.8922   -0.1064 C   0  0  0  0  0  0  0  0  0  0  0  0
   -3.8945    3.5247    0.1779 C   0  0  0  0  0  0  0  0  0  0  0  0
   -5.0385    3.0429    0.7278 F   0  0  0  0  0  0  0  0  0  0  0  0
   -2.7990    2.6779   -0.1078 C   0  0  0  0  0  0  0  0  0  0  0  0
   -2.8099    1.2944    0.1518 C   0  0  0  0  0  0  0  0  0  0  0  0
   -3.8356    0.7621    0.6644 O   0  0  0  0  0  0  0  0  0  0  0  0
   -1.7142    0.5194   -0.1476 N   0  0  0  0  0  0  0  0  0  0  0  0
   -1.7989   -0.8919    0.1299 C   0  0  0  0  0  0  0  0  0  0  0  0
   -2.4093   -1.7534   -0.7970 C   0  0  0  0  0  0  0  0  0  0  0  0
   -2.5744   -3.1090   -0.4969 C   0  0  0  0  0  0  0  0  0  0  0  0
   -2.1645   -3.6058    0.7435 C   0  0  0  0  0  0  0  0  0  0  0  0
   -1.6087   -2.7433    1.6927 C   0  0  0  0  0  0  0  0  0  0  0  0
   -1.4449   -1.3869    1.3956 C   0  0  0  0  0  0  0  0  0  0  0  0
    1.3564    1.0880   -1.5378 H   0  0  0  0  0  0  0  0  0  0  0  0
    1.1379   -0.5623   -2.9978 H   0  0  0  0  0  0  0  0  0  0  0  0
   -0.5502   -0.7450   -2.5240 H   0  0  0  0  0  0  0  0  0  0  0  0
    1.8996   -2.3555   -1.5959 H   0  0  0  0  0  0  0  0  0  0  0  0
    0.3498   -2.4300   -0.6795 H   0  0  0  0  0  0  0  0  0  0  0  0
    0.4059   -2.9299   -2.4067 H   0  0  0  0  0  0  0  0  0  0  0  0
    0.8806   -0.1131    1.0669 H   0  0  0  0  0  0  0  0  0  0  0  0
    5.4938   -0.3775   -1.8305 H   0  0  0  0  0  0  0  0  0  0  0  0
    3.9388   -1.8768    4.2705 H   0  0  0  0  0  0  0  0  0  0  0  0
    6.0862   -1.8835    2.8103 H   0  0  0  0  0  0  0  0  0  0  0  0
   -0.6731    5.0224   -1.3957 H   0  0  0  0  0  0  0  0  0  0  0  0
   -2.5991    6.4867   -0.8892 H   0  0  0  0  0  0  0  0  0  0  0  0
   -4.6531    5.5400    0.1126 H   0  0  0  0  0  0  0  0  0  0  0  0
   -2.7557   -1.3713   -1.7487 H   0  0  0  0  0  0  0  0  0  0  0  0
   -3.0274   -3.7722   -1.2223 H   0  0  0  0  0  0  0  0  0  0  0  0
   -2.2947   -4.6547    0.9761 H   0  0  0  0  0  0  0  0  0  0  0  0
   -1.3185   -3.1229    2.6638 H   0  0  0  0  0  0  0  0  0  0  0  0
   -1.0594   -0.7191    2.1549 H   0  0  0  0  0  0  0  0  0  0  0  0
  1  2  1  0
  2  3  1  0
  1  4  1  0
  4  5  1  0
  5  6  2  0
  6  7  1  0
  7  8  2  0
  8  9  1  0
  9 10  2  0
 10 11  1  0
 11 12  2  0
 12 13  1  0
  1 14  1  0
 14 15  2  0
 15 16  1  0
 16 17  2  0
 17 18  1  0
 18 19  2  0
 19 20  1  0
 20 21  1  0
 20 22  2  0
 22 23  1  0
 23 24  2  0
 23 25  1  0
 25 26  1  0
 26 27  2  0
 27 28  1  0
 28 29  2  0
 29 30  1  0
 30 31  2  0
 10  5  1  0
 25 14  1  0
 31 26  1  0
 13  9  1  0
 22 16  1  0
  1 32  1  6
  2 33  1  0
  2 34  1  0
  3 35  1  0
  3 36  1  0
  3 37  1  0
  4 38  1  0
  7 39  1  0
 12 40  1  0
 13 41  1  0
 17 42  1  0
 18 43  1  0
 19 44  1  0
 27 45  1  0
 28 46  1  0
 29 47  1  0
 30 48  1  0
 31 49  1  0
M  END
$$$$
