
     RDKit          3D

 11 10  0  0  0  0  0  0  0  0999 V2000
   -1.5243    0.4996   -0.8593 N   0  0  0  0  0  0  0  0  0  0  0  0
   -0.5606    0.6083    0.2328 C   0  0  0  0  0  0  0  0  0  0  0  0
    0.4253   -0.5233    0.1951 C   0  0  0  0  0  0  0  0  0  0  0  0
    1.5805   -0.4470   -0.6396 N   0  0  0  0  0  0  0  0  0  0  0  0
    0.2119   -1.5630    0.8738 O   0  0  0  0  0  0  0  0  0  0  0  0
   -1.0063    0.5064   -1.7684 H   0  0  0  0  0  0  0  0  0  0  0  0
   -2.0186   -0.4194   -0.7823 H   0  0  0  0  0  0  0  0  0  0  0  0
   -0.0218    1.5768    0.1536 H   0  0  0  0  0  0  0  0  0  0  0  0
   -1.1032    0.6033    1.2029 H   0  0  0  0  0  0  0  0  0  0  0  0
    1.7592    0.3988   -1.2251 H   0  0  0  0  0  0  0  0  0  0  0  0
    2.2581   -1.2406   -0.6757 H   0  0  0  0  0  0  0  0  0  0  0  0
  1  2  1  0
  2  3  1  0
  3  4  1  0
  3  5  2  0
  1  6  1  0
  1  7  1  0
  2  8  1  0
  2  9  1  0
  4 10  1  0
  4 11  1  0
M  END
$$$$
