
     RDKit          3D

 41 44  0  0  0  0  0  0  0  0999 V2000
   -3.4951    1.9522   -3.2653 N   0  0  0  0  0  0  0  0  0  0  0  0
   -2.4273    1.0482   -2.9815 C   0  0  0  0  0  0  0  0  0  0  0  0
   -1.6972    0.9904   -1.8026 C   0  0  0  0  0  0  0  0  0  0  0  0
   -0.8118   -0.0149   -1.9451 N   0  0  0  0  0  0  0  0  0  0  0  0
    0.1722   -0.4594   -1.1184 C   0  0  0  0  0  0  0  0  0  0  0  0
    0.9763   -1.5400   -1.5377 C   0  0  0  0  0  0  0  0  0  0  0  0
    0.7295   -2.1105   -2.8093 C   0  0  0  0  0  0  0  0  0  0  0  0
   -0.2787   -1.6003   -3.6406 C   0  0  0  0  0  0  0  0  0  0  0  0
   -1.0358   -0.5335   -3.1666 C   0  0  0  0  0  0  0  0  0  0  0  0
   -2.0240    0.0873   -3.8446 N   0  0  0  0  0  0  0  0  0  0  0  0
    2.0300   -2.1000   -0.6528 C   0  0  0  0  0  0  0  0  0  0  0  0
    2.4707   -3.2610   -0.8727 O   0  0  0  0  0  0  0  0  0  0  0  0
    2.5628   -1.3488    0.5056 C   0  0  0  0  0  0  0  0  0  0  0  0
    3.0469   -0.0350    0.3510 C   0  0  0  0  0  0  0  0  0  0  0  0
    3.0662    0.5572   -0.8703 F   0  0  0  0  0  0  0  0  0  0  0  0
    3.5316    0.6700    1.4572 C   0  0  0  0  0  0  0  0  0  0  0  0
    3.5481    0.0716    2.7190 C   0  0  0  0  0  0  0  0  0  0  0  0
    3.0864   -1.2369    2.8781 C   0  0  0  0  0  0  0  0  0  0  0  0
    2.6000   -1.9497    1.7775 C   0  0  0  0  0  0  0  0  0  0  0  0
    2.1403   -3.2141    1.9582 F   0  0  0  0  0  0  0  0  0  0  0  0
   -1.8182    1.8862   -0.6313 C   0  0  0  0  0  0  0  0  0  0  0  0
   -1.9606    3.1235   -0.8258 O   0  0  0  0  0  0  0  0  0  0  0  0
   -1.7729    1.3705    0.7569 C   0  0  0  0  0  0  0  0  0  0  0  0
   -1.2940    2.1863    1.7977 C   0  0  0  0  0  0  0  0  0  0  0  0
   -1.2252    1.6965    3.1056 C   0  0  0  0  0  0  0  0  0  0  0  0
   -1.6423    0.3939    3.3893 C   0  0  0  0  0  0  0  0  0  0  0  0
   -2.1355   -0.4196    2.3667 C   0  0  0  0  0  0  0  0  0  0  0  0
   -2.2068    0.0652    1.0573 C   0  0  0  0  0  0  0  0  0  0  0  0
   -3.9793    1.9125   -4.1893 H   0  0  0  0  0  0  0  0  0  0  0  0
   -3.8268    2.6394   -2.5538 H   0  0  0  0  0  0  0  0  0  0  0  0
    0.3290    0.0044   -0.1557 H   0  0  0  0  0  0  0  0  0  0  0  0
    1.3246   -2.9429   -3.1632 H   0  0  0  0  0  0  0  0  0  0  0  0
   -0.4595   -2.0233   -4.6205 H   0  0  0  0  0  0  0  0  0  0  0  0
    3.8995    1.6807    1.3360 H   0  0  0  0  0  0  0  0  0  0  0  0
    3.9232    0.6205    3.5731 H   0  0  0  0  0  0  0  0  0  0  0  0
    3.1029   -1.6981    3.8572 H   0  0  0  0  0  0  0  0  0  0  0  0
   -0.9554    3.1951    1.5960 H   0  0  0  0  0  0  0  0  0  0  0  0
   -0.8451    2.3266    3.8993 H   0  0  0  0  0  0  0  0  0  0  0  0
   -1.5863    0.0162    4.4020 H   0  0  0  0  0  0  0  0  0  0  0  0
   -2.4637   -1.4268    2.5885 H   0  0  0  0  0  0  0  0  0  0  0  0
   -2.5986   -0.5795    0.2806 H   0  0  0  0  0  0  0  0  0  0  0  0
  1  2  1  0
  2  3  2  0
  3  4  1  0
  4  5  1  0
  5  6  2  0
  6  7  1  0
  7  8  2  0
  8  9  1  0
  9 10  2  0
  6 11  1  0
 11 12  2  0
 11 13  1  0
 13 14  2  0
 14 15  1  0
 14 16  1  0
 16 17  2  0
 17 18  1  0
 18 19  2  0
 19 20  1  0
  3 21  1  0
 21 22  2  0
 21 23  1  0
 23 24  2  0
 24 25  1  0
 25 26  2  0
 26 27  1  0
 27 28  2  0
 10  2  1  0
 19 13  1  0
 28 23  1  0
  9  4  1  0
  1 29  1  0
  1 30  1  0
  5 31  1  0
  7 32  1  0
  8 33  1  0
 16 34  1  0
 17 35  1  0
 18 36  1  0
 24 37  1  0
 25 38  1  0
 26 39  1  0
 27 40  1  0
 28 41  1  0
M  END
$$$$
