
     RDKit          3D

 21 22  0  0  0  0  0  0  0  0999 V2000
   -1.4572    2.2542    0.4050 C   0  0  0  0  0  0  0  0  0  0  0  0
   -0.6177    1.0617    0.2307 N   0  0  0  0  0  0  0  0  0  0  0  0
   -1.1779   -0.1701    0.0871 C   0  0  0  0  0  0  0  0  0  0  0  0
   -0.4371   -1.2775   -0.1242 C   0  0  0  0  0  0  0  0  0  0  0  0
   -1.2433   -2.3392   -0.2453 N   0  0  0  0  0  0  0  0  0  0  0  0
   -2.4858   -1.8185   -0.0979 C   0  0  0  0  0  0  0  0  0  0  0  0
   -2.4900   -0.4744    0.1079 N   0  0  0  0  0  0  0  0  0  0  0  0
    0.9418   -1.2012   -0.2084 C   0  0  0  0  0  0  0  0  0  0  0  0
    1.6232   -2.2407   -0.4257 O   0  0  0  0  0  0  0  0  0  0  0  0
    1.5355    0.0317   -0.0583 N   0  0  0  0  0  0  0  0  0  0  0  0
    2.9970    0.1616   -0.1794 C   0  0  0  0  0  0  0  0  0  0  0  0
    0.7543    1.1617    0.1285 C   0  0  0  0  0  0  0  0  0  0  0  0
    1.3021    2.2983    0.1997 O   0  0  0  0  0  0  0  0  0  0  0  0
   -2.4436    1.9932    0.8442 H   0  0  0  0  0  0  0  0  0  0  0  0
   -1.6173    2.7432   -0.5789 H   0  0  0  0  0  0  0  0  0  0  0  0
   -0.9733    2.9753    1.0980 H   0  0  0  0  0  0  0  0  0  0  0  0
   -0.9819   -3.3351   -0.4188 H   0  0  0  0  0  0  0  0  0  0  0  0
   -3.3884   -2.4133   -0.1438 H   0  0  0  0  0  0  0  0  0  0  0  0
    3.5145   -0.7678    0.1410 H   0  0  0  0  0  0  0  0  0  0  0  0
    3.3806    0.9751    0.4727 H   0  0  0  0  0  0  0  0  0  0  0  0
    3.2647    0.3817   -1.2342 H   0  0  0  0  0  0  0  0  0  0  0  0
  1  2  1  0
  2  3  1  0
  3  4  2  0
  4  5  1  0
  5  6  1  0
  6  7  2  0
  4  8  1  0
  8  9  2  0
  8 10  1  0
 10 11  1  0
 10 12  1  0
 12 13  2  0
 12  2  1  0
  7  3  1  0
  1 14  1  0
  1 15  1  0
  1 16  1  0
  5 17  1  0
  6 18  1  0
 11 19  1  0
 11 20  1  0
 11 21  1  0
M  END
$$$$
