
     RDKit          3D

 81 84  0  0  0  0  0  0  0  0999 V2000
    2.3170   -0.6738    0.8161 C   0  0  1  0  0  0  0  0  0  0  0  0
    2.0980   -0.2388    2.2925 C   0  0  0  0  0  0  0  0  0  0  0  0
    0.5844   -0.0782    2.5111 C   0  0  0  0  0  0  0  0  0  0  0  0
   -0.0636   -0.7568    1.2941 C   0  0  1  0  0  0  0  0  0  0  0  0
   -0.1602   -2.2849    1.6162 C   0  0  0  0  0  0  0  0  0  0  0  0
   -1.4671   -0.3077    0.9026 C   0  0  0  0  0  0  0  0  0  0  0  0
   -1.9001   -0.5789   -0.3741 C   0  0  0  0  0  0  0  0  0  0  0  0
   -0.9477   -1.2588   -1.3901 C   0  0  0  0  0  0  0  0  0  0  0  0
    0.5792   -1.2375   -1.0843 C   0  0  0  0  0  0  0  0  0  0  0  0
    0.9321   -0.3846    0.1521 C   0  0  2  0  0  0  0  0  0  0  0  0
    0.8382    1.1312   -0.2471 C   0  0  0  0  0  0  0  0  0  0  0  0
   -3.2807   -0.0824   -0.8806 C   0  0  1  0  0  0  0  0  0  0  0  0
   -2.9973    1.2781   -1.5776 C   0  0  0  0  0  0  0  0  0  0  0  0
   -3.8795   -1.0941   -1.9268 C   0  0  0  0  0  0  0  0  0  0  0  0
   -5.4010   -1.3265   -1.8443 C   0  0  0  0  0  0  0  0  0  0  0  0
   -6.1867   -0.0645   -1.4675 C   0  0  2  0  0  0  0  0  0  0  0  0
   -6.0349    0.9095   -2.4702 O   0  0  0  0  0  0  0  0  0  0  0  0
   -5.7681    0.4735   -0.0482 C   0  0  0  0  0  0  0  0  0  0  0  0
   -6.7287   -0.1650    0.9948 C   0  0  0  0  0  0  0  0  0  0  0  0
   -5.9938    2.0087    0.0339 C   0  0  0  0  0  0  0  0  0  0  0  0
   -4.2812    0.0511    0.3224 C   0  0  2  0  0  0  0  0  0  0  0  0
   -3.6626    0.8718    1.4681 C   0  0  0  0  0  0  0  0  0  0  0  0
   -2.4042    0.1902    1.9916 C   0  0  0  0  0  0  0  0  0  0  0  0
    3.6019   -0.0280    0.1883 C   0  0  2  0  0  0  0  0  0  0  0  0
    3.8004   -0.4578   -1.2800 C   0  0  0  0  0  0  0  0  0  0  0  0
    4.8819   -0.4045    1.0035 C   0  0  0  0  0  0  0  0  0  0  0  0
    5.8236    0.7897    1.2380 C   0  0  0  0  0  0  0  0  0  0  0  0
    6.3884    1.3425   -0.0480 C   0  0  0  0  0  0  0  0  0  0  0  0
    7.4845    0.8569   -0.6737 C   0  0  0  0  0  0  0  0  0  0  0  0
    7.9400    1.4736   -1.9707 C   0  0  0  0  0  0  0  0  0  0  0  0
    8.3125   -0.2612   -0.0909 C   0  0  0  0  0  0  0  0  0  0  0  0
    2.4904   -1.7727    0.8053 H   0  0  0  0  0  0  0  0  0  0  0  0
    2.6071    0.7248    2.5162 H   0  0  0  0  0  0  0  0  0  0  0  0
    2.4937   -1.0154    2.9832 H   0  0  0  0  0  0  0  0  0  0  0  0
    0.3400    1.0048    2.5457 H   0  0  0  0  0  0  0  0  0  0  0  0
    0.2650   -0.5276    3.4775 H   0  0  0  0  0  0  0  0  0  0  0  0
   -0.5641   -2.8764    0.7711 H   0  0  0  0  0  0  0  0  0  0  0  0
   -0.8518   -2.4455    2.4713 H   0  0  0  0  0  0  0  0  0  0  0  0
    0.8135   -2.7260    1.9083 H   0  0  0  0  0  0  0  0  0  0  0  0
   -1.1006   -0.8121   -2.3943 H   0  0  0  0  0  0  0  0  0  0  0  0
   -1.2463   -2.3237   -1.4831 H   0  0  0  0  0  0  0  0  0  0  0  0
    1.1087   -0.8678   -1.9849 H   0  0  0  0  0  0  0  0  0  0  0  0
    0.9386   -2.2795   -0.9384 H   0  0  0  0  0  0  0  0  0  0  0  0
    1.4798    1.3591   -1.1197 H   0  0  0  0  0  0  0  0  0  0  0  0
   -0.1837    1.4339   -0.5423 H   0  0  0  0  0  0  0  0  0  0  0  0
    1.1585    1.8022    0.5754 H   0  0  0  0  0  0  0  0  0  0  0  0
   -2.2505    1.1571   -2.3894 H   0  0  0  0  0  0  0  0  0  0  0  0
   -3.8830    1.7136   -2.0587 H   0  0  0  0  0  0  0  0  0  0  0  0
   -2.5780    2.0256   -0.8761 H   0  0  0  0  0  0  0  0  0  0  0  0
   -3.4345   -2.1013   -1.7952 H   0  0  0  0  0  0  0  0  0  0  0  0
   -3.6231   -0.7801   -2.9629 H   0  0  0  0  0  0  0  0  0  0  0  0
   -5.7641   -1.7149   -2.8210 H   0  0  0  0  0  0  0  0  0  0  0  0
   -5.6115   -2.1185   -1.0922 H   0  0  0  0  0  0  0  0  0  0  0  0
   -7.2666   -0.3484   -1.4453 H   0  0  0  0  0  0  0  0  0  0  0  0
   -6.5430    0.5974   -3.2645 H   0  0  0  0  0  0  0  0  0  0  0  0
   -6.6792   -1.2742    0.9569 H   0  0  0  0  0  0  0  0  0  0  0  0
   -7.7817    0.1344    0.7998 H   0  0  0  0  0  0  0  0  0  0  0  0
   -6.4813    0.1533    2.0284 H   0  0  0  0  0  0  0  0  0  0  0  0
   -7.0100    2.2697   -0.3334 H   0  0  0  0  0  0  0  0  0  0  0  0
   -5.9211    2.3739    1.0803 H   0  0  0  0  0  0  0  0  0  0  0  0
   -5.2584    2.5747   -0.5664 H   0  0  0  0  0  0  0  0  0  0  0  0
   -4.3556   -0.9873    0.7258 H   0  0  0  0  0  0  0  0  0  0  0  0
   -3.4235    1.9057    1.1480 H   0  0  0  0  0  0  0  0  0  0  0  0
   -4.3739    0.9559    2.3156 H   0  0  0  0  0  0  0  0  0  0  0  0
   -1.8920    0.9127    2.6570 H   0  0  0  0  0  0  0  0  0  0  0  0
   -2.7004   -0.6811    2.6150 H   0  0  0  0  0  0  0  0  0  0  0  0
    3.4828    1.0768    0.2055 H   0  0  0  0  0  0  0  0  0  0  0  0
    3.6405   -1.5510   -1.3956 H   0  0  0  0  0  0  0  0  0  0  0  0
    3.1200    0.0906   -1.9562 H   0  0  0  0  0  0  0  0  0  0  0  0
    4.8262   -0.2233   -1.6311 H   0  0  0  0  0  0  0  0  0  0  0  0
    4.6207   -0.8003    2.0055 H   0  0  0  0  0  0  0  0  0  0  0  0
    5.4347   -1.2344    0.5139 H   0  0  0  0  0  0  0  0  0  0  0  0
    6.6403    0.4943    1.9295 H   0  0  0  0  0  0  0  0  0  0  0  0
    5.2578    1.5962    1.7527 H   0  0  0  0  0  0  0  0  0  0  0  0
    5.8510    2.1768   -0.4912 H   0  0  0  0  0  0  0  0  0  0  0  0
    8.0582    0.6797   -2.7378 H   0  0  0  0  0  0  0  0  0  0  0  0
    8.9181    1.9757   -1.8173 H   0  0  0  0  0  0  0  0  0  0  0  0
    7.2152    2.2215   -2.3581 H   0  0  0  0  0  0  0  0  0  0  0  0
    9.1745   -0.4976   -0.7502 H   0  0  0  0  0  0  0  0  0  0  0  0
    7.7033   -1.1811    0.0142 H   0  0  0  0  0  0  0  0  0  0  0  0
    8.7151    0.0374    0.8995 H   0  0  0  0  0  0  0  0  0  0  0  0
  1  2  1  0
  2  3  1  0
  3  4  1  0
  4  5  1  1
  4  6  1  0
  6  7  2  0
  7  8  1  0
  8  9  1  0
  9 10  1  0
 10 11  1  6
  7 12  1  0
 12 13  1  6
 12 14  1  0
 14 15  1  0
 15 16  1  0
 16 17  1  0
 16 18  1  0
 18 19  1  0
 18 20  1  0
 18 21  1  0
 21 22  1  0
 22 23  1  0
  1 24  1  0
 24 25  1  0
 24 26  1  0
 26 27  1  0
 27 28  1  0
 28 29  2  3
 29 30  1  0
 29 31  1  0
 10  1  1  0
 21 12  1  0
 10  4  1  0
 23  6  1  0
  1 32  1  1
  2 33  1  0
  2 34  1  0
  3 35  1  0
  3 36  1  0
  5 37  1  0
  5 38  1  0
  5 39  1  0
  8 40  1  0
  8 41  1  0
  9 42  1  0
  9 43  1  0
 11 44  1  0
 11 45  1  0
 11 46  1  0
 13 47  1  0
 13 48  1  0
 13 49  1  0
 14 50  1  0
 14 51  1  0
 15 52  1  0
 15 53  1  0
 16 54  1  1
 17 55  1  0
 19 56  1  0
 19 57  1  0
 19 58  1  0
 20 59  1  0
 20 60  1  0
 20 61  1  0
 21 62  1  1
 22 63  1  0
 22 64  1  0
 23 65  1  0
 23 66  1  0
 24 67  1  6
 25 68  1  0
 25 69  1  0
 25 70  1  0
 26 71  1  0
 26 72  1  0
 27 73  1  0
 27 74  1  0
 28 75  1  0
 30 76  1  0
 30 77  1  0
 30 78  1  0
 31 79  1  0
 31 80  1  0
 31 81  1  0
M  END
$$$$
