
     RDKit          3D

 53 57  0  0  0  0  0  0  0  0999 V2000
   -4.0502    1.7966    1.2670 C   0  0  0  0  0  0  0  0  0  0  0  0
   -2.9207    1.2465    0.5185 N   0  0  0  0  0  0  0  0  0  0  0  0
   -2.9240    0.6048   -0.6822 C   0  0  0  0  0  0  0  0  0  0  0  0
   -4.1056    0.3232   -1.4436 N   0  0  0  0  0  0  0  0  0  0  0  0
   -5.2819   -0.2954   -0.8959 C   0  0  0  0  0  0  0  0  0  0  0  0
   -5.2220   -1.0805    0.2686 C   0  0  0  0  0  0  0  0  0  0  0  0
   -6.3764   -1.6846    0.7743 C   0  0  0  0  0  0  0  0  0  0  0  0
   -7.6127   -1.5113    0.1292 C   0  0  0  0  0  0  0  0  0  0  0  0
   -7.6608   -0.7650   -1.0606 C   0  0  0  0  0  0  0  0  0  0  0  0
   -6.5058   -0.1608   -1.5653 C   0  0  0  0  0  0  0  0  0  0  0  0
   -8.8482   -2.2033    0.6475 C   0  0  0  0  0  0  0  0  0  0  0  0
   -8.9368   -3.4610    0.0809 F   0  0  0  0  0  0  0  0  0  0  0  0
   -9.9844   -1.4817    0.3242 F   0  0  0  0  0  0  0  0  0  0  0  0
   -8.7948   -2.3315    2.0247 F   0  0  0  0  0  0  0  0  0  0  0  0
   -1.6840    0.2815   -1.1321 N   0  0  0  0  0  0  0  0  0  0  0  0
   -0.8849    0.7191   -0.1416 C   0  0  0  0  0  0  0  0  0  0  0  0
    0.5026    0.6291   -0.0724 C   0  0  0  0  0  0  0  0  0  0  0  0
    1.1471    1.1639    1.0695 C   0  0  0  0  0  0  0  0  0  0  0  0
    2.5389    1.0988    1.2293 O   0  0  0  0  0  0  0  0  0  0  0  0
    3.4788    1.1238    0.1884 C   0  0  0  0  0  0  0  0  0  0  0  0
    3.2539    1.8384   -0.9986 C   0  0  0  0  0  0  0  0  0  0  0  0
    4.2331    1.8430   -1.9916 C   0  0  0  0  0  0  0  0  0  0  0  0
    5.3982    1.1702   -1.8028 N   0  0  0  0  0  0  0  0  0  0  0  0
    5.6592    0.4783   -0.6591 C   0  0  0  0  0  0  0  0  0  0  0  0
    4.6946    0.4551    0.3636 C   0  0  0  0  0  0  0  0  0  0  0  0
    6.9553   -0.2213   -0.5322 C   0  0  0  0  0  0  0  0  0  0  0  0
    7.9010   -0.1738   -1.4973 N   0  0  0  0  0  0  0  0  0  0  0  0
    8.9070   -0.9328   -1.0208 C   0  0  0  0  0  0  0  0  0  0  0  0
    8.5597   -1.4145    0.2217 C   0  0  0  0  0  0  0  0  0  0  0  0
    7.3254   -0.9797    0.5230 N   0  0  0  0  0  0  0  0  0  0  0  0
    9.3516   -2.3718    1.0574 C   0  0  0  0  0  0  0  0  0  0  0  0
   10.7053   -2.1843    0.8434 F   0  0  0  0  0  0  0  0  0  0  0  0
    9.0774   -2.1671    2.3973 F   0  0  0  0  0  0  0  0  0  0  0  0
    9.0118   -3.6672    0.7161 F   0  0  0  0  0  0  0  0  0  0  0  0
    0.3740    1.7395    2.1055 C   0  0  0  0  0  0  0  0  0  0  0  0
   -1.0268    1.8160    2.0025 C   0  0  0  0  0  0  0  0  0  0  0  0
   -1.6211    1.2924    0.8540 C   0  0  0  0  0  0  0  0  0  0  0  0
   -4.3538    1.0851    2.0627 H   0  0  0  0  0  0  0  0  0  0  0  0
   -3.7649    2.7630    1.7327 H   0  0  0  0  0  0  0  0  0  0  0  0
   -4.9096    1.9908    0.5927 H   0  0  0  0  0  0  0  0  0  0  0  0
   -4.0616    0.4787   -2.4759 H   0  0  0  0  0  0  0  0  0  0  0  0
   -4.2812   -1.2398    0.7793 H   0  0  0  0  0  0  0  0  0  0  0  0
   -6.3010   -2.2934    1.6666 H   0  0  0  0  0  0  0  0  0  0  0  0
   -8.5913   -0.6507   -1.6024 H   0  0  0  0  0  0  0  0  0  0  0  0
   -6.5650    0.4178   -2.4786 H   0  0  0  0  0  0  0  0  0  0  0  0
    1.0585    0.1445   -0.8643 H   0  0  0  0  0  0  0  0  0  0  0  0
    2.3421    2.4018   -1.1468 H   0  0  0  0  0  0  0  0  0  0  0  0
    4.0703    2.3884   -2.9116 H   0  0  0  0  0  0  0  0  0  0  0  0
    4.8669   -0.0748    1.2894 H   0  0  0  0  0  0  0  0  0  0  0  0
    9.8273   -1.1298   -1.5546 H   0  0  0  0  0  0  0  0  0  0  0  0
    6.7808   -1.2075    1.3834 H   0  0  0  0  0  0  0  0  0  0  0  0
    0.8645    2.1329    2.9867 H   0  0  0  0  0  0  0  0  0  0  0  0
   -1.6160    2.2601    2.7939 H   0  0  0  0  0  0  0  0  0  0  0  0
  1  2  1  0
  2  3  1  0
  3  4  1  0
  4  5  1  0
  5  6  2  0
  6  7  1  0
  7  8  2  0
  8  9  1  0
  9 10  2  0
  8 11  1  0
 11 12  1  0
 11 13  1  0
 11 14  1  0
  3 15  2  0
 15 16  1  0
 16 17  2  0
 17 18  1  0
 18 19  1  0
 19 20  1  0
 20 21  2  0
 21 22  1  0
 22 23  2  0
 23 24  1  0
 24 25  2  0
 24 26  1  0
 26 27  2  0
 27 28  1  0
 28 29  2  0
 29 30  1  0
 29 31  1  0
 31 32  1  0
 31 33  1  0
 31 34  1  0
 18 35  2  0
 35 36  1  0
 36 37  2  0
 37  2  1  0
 10  5  1  0
 37 16  1  0
 25 20  1  0
 30 26  1  0
  1 38  1  0
  1 39  1  0
  1 40  1  0
  4 41  1  0
  6 42  1  0
  7 43  1  0
  9 44  1  0
 10 45  1  0
 17 46  1  0
 21 47  1  0
 22 48  1  0
 25 49  1  0
 28 50  1  0
 30 51  1  0
 35 52  1  0
 36 53  1  0
M  END
$$$$
