
     RDKit          3D

 47 50  0  0  0  0  0  0  0  0999 V2000
    6.3848   -1.6252   -0.4608 O   0  0  0  0  0  0  0  0  0  0  0  0
    5.9906   -0.3254   -0.1360 C   0  0  0  0  0  0  0  0  0  0  0  0
    6.8989    0.4850    0.5537 C   0  0  0  0  0  0  0  0  0  0  0  0
    6.5501    1.7792    0.9500 C   0  0  0  0  0  0  0  0  0  0  0  0
    7.4901    2.5435    1.6425 O   0  0  0  0  0  0  0  0  0  0  0  0
    5.2705    2.2767    0.6459 C   0  0  0  0  0  0  0  0  0  0  0  0
    4.7775    3.8984    1.1143 Cl  0  0  0  0  0  0  0  0  0  0  0  0
    4.3626    1.4773   -0.0558 C   0  0  0  0  0  0  0  0  0  0  0  0
    4.7085    0.1761   -0.4569 C   0  0  0  0  0  0  0  0  0  0  0  0
    3.7394   -0.6142   -1.2439 C   0  0  0  0  0  0  0  0  0  0  0  0
    4.0380   -1.2566   -2.3994 N   0  0  0  0  0  0  0  0  0  0  0  0
    2.9366   -1.8020   -2.8445 O   0  0  0  0  0  0  0  0  0  0  0  0
    1.9413   -1.5374   -2.0349 C   0  0  0  0  0  0  0  0  0  0  0  0
    2.3911   -0.7788   -0.9962 C   0  0  0  0  0  0  0  0  0  0  0  0
    1.5510   -0.3649    0.0356 C   0  0  0  0  0  0  0  0  0  0  0  0
    0.1875   -0.7340   -0.0271 C   0  0  0  0  0  0  0  0  0  0  0  0
   -0.6948   -0.3136    1.0323 N   0  0  0  0  0  0  0  0  0  0  0  0
   -2.1484   -0.4834    1.0230 C   0  0  0  0  0  0  0  0  0  0  0  0
   -2.7954    0.5136    0.0388 C   0  0  0  0  0  0  0  0  0  0  0  0
   -4.2739    0.4742    0.0030 N   0  0  0  0  0  0  0  0  0  0  0  0
   -4.8378   -0.8568   -0.2718 C   0  0  0  0  0  0  0  0  0  0  0  0
   -6.3540   -0.7282   -0.5332 C   0  0  0  0  0  0  0  0  0  0  0  0
   -6.8666    0.5434   -0.1663 O   0  0  0  0  0  0  0  0  0  0  0  0
   -6.4399    0.8809    1.1393 C   0  0  0  0  0  0  0  0  0  0  0  0
   -4.9144    1.1004    1.1755 C   0  0  0  0  0  0  0  0  0  0  0  0
   -0.2720   -1.5228   -1.1223 C   0  0  0  0  0  0  0  0  0  0  0  0
    0.6128   -1.9304   -2.1382 C   0  0  0  0  0  0  0  0  0  0  0  0
    5.7590   -2.3085   -0.8660 H   0  0  0  0  0  0  0  0  0  0  0  0
    7.8815    0.0994    0.7964 H   0  0  0  0  0  0  0  0  0  0  0  0
    7.3028    3.4863    1.9591 H   0  0  0  0  0  0  0  0  0  0  0  0
    3.3916    1.8841   -0.3113 H   0  0  0  0  0  0  0  0  0  0  0  0
    1.9341    0.2175    0.8635 H   0  0  0  0  0  0  0  0  0  0  0  0
   -0.2753    0.1422    1.8747 H   0  0  0  0  0  0  0  0  0  0  0  0
   -2.5265   -0.2966    2.0484 H   0  0  0  0  0  0  0  0  0  0  0  0
   -2.3959   -1.5341    0.7704 H   0  0  0  0  0  0  0  0  0  0  0  0
   -2.4608    1.5425    0.2980 H   0  0  0  0  0  0  0  0  0  0  0  0
   -2.4163    0.3179   -0.9861 H   0  0  0  0  0  0  0  0  0  0  0  0
   -4.3428   -1.3105   -1.1589 H   0  0  0  0  0  0  0  0  0  0  0  0
   -4.6854   -1.5299    0.6009 H   0  0  0  0  0  0  0  0  0  0  0  0
   -6.9088   -1.5316    0.0009 H   0  0  0  0  0  0  0  0  0  0  0  0
   -6.5436   -0.8713   -1.6182 H   0  0  0  0  0  0  0  0  0  0  0  0
   -6.9539    1.8142    1.4528 H   0  0  0  0  0  0  0  0  0  0  0  0
   -6.7372    0.0896    1.8661 H   0  0  0  0  0  0  0  0  0  0  0  0
   -4.5185    0.6872    2.1265 H   0  0  0  0  0  0  0  0  0  0  0  0
   -4.7051    2.1922    1.1584 H   0  0  0  0  0  0  0  0  0  0  0  0
   -1.3042   -1.8327   -1.1957 H   0  0  0  0  0  0  0  0  0  0  0  0
    0.2713   -2.5333   -2.9694 H   0  0  0  0  0  0  0  0  0  0  0  0
  1  2  1  0
  2  3  2  0
  3  4  1  0
  4  5  1  0
  4  6  2  0
  6  7  1  0
  6  8  1  0
  8  9  2  0
  9 10  1  0
 10 11  2  0
 11 12  1  0
 12 13  1  0
 13 14  2  0
 14 15  1  0
 15 16  2  0
 16 17  1  0
 17 18  1  0
 18 19  1  0
 19 20  1  0
 20 21  1  0
 21 22  1  0
 22 23  1  0
 23 24  1  0
 24 25  1  0
 16 26  1  0
 26 27  2  0
  9  2  1  0
 14 10  1  0
 25 20  1  0
 27 13  1  0
  1 28  1  0
  3 29  1  0
  5 30  1  0
  8 31  1  0
 15 32  1  0
 17 33  1  0
 18 34  1  0
 18 35  1  0
 19 36  1  0
 19 37  1  0
 21 38  1  0
 21 39  1  0
 22 40  1  0
 22 41  1  0
 24 42  1  0
 24 43  1  0
 25 44  1  0
 25 45  1  0
 26 46  1  0
 27 47  1  0
M  END
$$$$
