
     RDKit          3D

 21 21  0  0  0  0  0  0  0  0999 V2000
   -1.9155    0.0785   -0.1132 C   0  0  1  0  0  0  0  0  0  0  0  0
   -1.5478    1.5490    0.1277 C   0  0  0  0  0  0  0  0  0  0  0  0
   -0.9065   -0.6237   -1.0480 C   0  0  0  0  0  0  0  0  0  0  0  0
    0.4870   -0.6739   -0.4848 C   0  0  0  0  0  0  0  0  0  0  0  0
    0.9358   -1.6957    0.3517 C   0  0  0  0  0  0  0  0  0  0  0  0
    2.5261   -1.3551    0.7846 S   0  0  0  0  0  0  0  0  0  0  0  0
    2.5646    0.0681   -0.1062 C   0  0  0  0  0  0  0  0  0  0  0  0
    3.6911    0.9359   -0.1935 N   0  0  0  0  0  0  0  0  0  0  0  0
    1.3956    0.3082   -0.7348 N   0  0  0  0  0  0  0  0  0  0  0  0
   -2.0680   -0.6572    1.1939 C   0  0  0  0  0  0  0  0  0  0  0  0
   -2.5263   -1.7886    1.2129 O   0  0  0  0  0  0  0  0  0  0  0  0
   -2.9056    0.0677   -0.6205 H   0  0  0  0  0  0  0  0  0  0  0  0
   -0.6014    1.6350    0.7031 H   0  0  0  0  0  0  0  0  0  0  0  0
   -1.4306    2.0793   -0.8413 H   0  0  0  0  0  0  0  0  0  0  0  0
   -2.3553    2.0517    0.7020 H   0  0  0  0  0  0  0  0  0  0  0  0
   -0.8819   -0.0927   -2.0245 H   0  0  0  0  0  0  0  0  0  0  0  0
   -1.2552   -1.6584   -1.2594 H   0  0  0  0  0  0  0  0  0  0  0  0
    0.3624   -2.5556    0.6714 H   0  0  0  0  0  0  0  0  0  0  0  0
    4.5739    0.7068    0.3142 H   0  0  0  0  0  0  0  0  0  0  0  0
    3.6408    1.8075   -0.7658 H   0  0  0  0  0  0  0  0  0  0  0  0
   -1.7829   -0.1872    2.1304 H   0  0  0  0  0  0  0  0  0  0  0  0
  1  2  1  0
  1  3  1  0
  3  4  1  0
  4  5  2  0
  5  6  1  0
  6  7  1  0
  7  8  1  0
  7  9  2  0
  1 10  1  0
 10 11  2  0
  9  4  1  0
  1 12  1  6
  2 13  1  0
  2 14  1  0
  2 15  1  0
  3 16  1  0
  3 17  1  0
  5 18  1  0
  8 19  1  0
  8 20  1  0
 10 21  1  0
M  END
$$$$
