
     RDKit          3D

 75 79  0  0  0  0  0  0  0  0999 V2000
  -11.8682    1.5312    2.6368 C   0  0  0  0  0  0  0  0  0  0  0  0
  -10.5486    2.0319    2.4484 O   0  0  0  0  0  0  0  0  0  0  0  0
   -9.5499    1.3835    1.7042 C   0  0  0  0  0  0  0  0  0  0  0  0
   -8.2841    1.9857    1.5952 C   0  0  0  0  0  0  0  0  0  0  0  0
   -8.0127    3.2066    2.2128 O   0  0  0  0  0  0  0  0  0  0  0  0
   -7.2705    1.3626    0.8591 C   0  0  0  0  0  0  0  0  0  0  0  0
   -7.4987    0.1372    0.2110 C   0  0  0  0  0  0  0  0  0  0  0  0
   -8.7624   -0.4682    0.3332 C   0  0  0  0  0  0  0  0  0  0  0  0
   -9.7776    0.1492    1.0679 C   0  0  0  0  0  0  0  0  0  0  0  0
   -6.3983   -0.5015   -0.5547 C   0  0  0  0  0  0  0  0  0  0  0  0
   -6.6486   -1.3650   -1.6300 C   0  0  0  0  0  0  0  0  0  0  0  0
   -5.5783   -1.9405   -2.3161 C   0  0  0  0  0  0  0  0  0  0  0  0
   -5.8321   -2.6604   -3.3165 O   0  0  0  0  0  0  0  0  0  0  0  0
   -4.2519   -1.6738   -1.9009 C   0  0  0  0  0  0  0  0  0  0  0  0
   -3.0861   -2.2380   -2.4962 C   0  0  0  0  0  0  0  0  0  0  0  0
   -3.1161   -3.2369   -3.4740 O   0  0  0  0  0  0  0  0  0  0  0  0
   -1.8196   -1.8082   -2.0806 C   0  0  0  0  0  0  0  0  0  0  0  0
   -1.6725   -0.8722   -1.0446 C   0  0  0  0  0  0  0  0  0  0  0  0
   -0.4199   -0.4233   -0.5928 O   0  0  0  0  0  0  0  0  0  0  0  0
    0.8472   -0.7222   -1.1840 C   0  0  2  0  0  0  0  0  0  0  0  0
    1.8472   -0.3778   -0.2353 O   0  0  0  0  0  0  0  0  0  0  0  0
    3.1363   -0.4159   -0.8188 C   0  0  2  0  0  0  0  0  0  0  0  0
    4.1778   -0.3969    0.3055 C   0  0  0  0  0  0  0  0  0  0  0  0
    5.4726   -0.5561   -0.2393 O   0  0  0  0  0  0  0  0  0  0  0  0
    6.4536   -0.3444    0.7571 C   0  0  2  0  0  0  0  0  0  0  0  0
    6.5819    1.0484    0.9988 O   0  0  0  0  0  0  0  0  0  0  0  0
    7.3942    1.3280    2.1365 C   0  0  1  0  0  0  0  0  0  0  0  0
    6.5349    1.4070    3.4025 C   0  0  0  0  0  0  0  0  0  0  0  0
    8.5965    0.3512    2.3083 C   0  0  2  0  0  0  0  0  0  0  0  0
    9.6813    0.9873    2.9389 O   0  0  0  0  0  0  0  0  0  0  0  0
    9.0001   -0.2153    0.9306 C   0  0  1  0  0  0  0  0  0  0  0  0
   10.1216   -1.0611    1.0214 O   0  0  0  0  0  0  0  0  0  0  0  0
    7.7983   -0.9233    0.2527 C   0  0  1  0  0  0  0  0  0  0  0  0
    7.8354   -2.3060    0.5025 O   0  0  0  0  0  0  0  0  0  0  0  0
    3.3184    0.7877   -1.7883 C   0  0  1  0  0  0  0  0  0  0  0  0
    4.1480    0.4118   -2.8595 O   0  0  0  0  0  0  0  0  0  0  0  0
    1.9565    1.2587   -2.3467 C   0  0  2  0  0  0  0  0  0  0  0  0
    1.3895    2.1937   -1.4625 O   0  0  0  0  0  0  0  0  0  0  0  0
    1.0009    0.0640   -2.5253 C   0  0  1  0  0  0  0  0  0  0  0  0
    1.5141   -0.7818   -3.5242 O   0  0  0  0  0  0  0  0  0  0  0  0
   -2.8116   -0.3675   -0.4197 C   0  0  0  0  0  0  0  0  0  0  0  0
   -4.0879   -0.7501   -0.8367 C   0  0  0  0  0  0  0  0  0  0  0  0
   -5.1419   -0.2243   -0.2213 O   0  0  0  0  0  0  0  0  0  0  0  0
  -12.4412    2.2464    3.2617 H   0  0  0  0  0  0  0  0  0  0  0  0
  -11.8341    0.5516    3.1586 H   0  0  0  0  0  0  0  0  0  0  0  0
  -12.3802    1.4259    1.6570 H   0  0  0  0  0  0  0  0  0  0  0  0
   -8.7075    3.7026    2.7579 H   0  0  0  0  0  0  0  0  0  0  0  0
   -6.3046    1.8478    0.7856 H   0  0  0  0  0  0  0  0  0  0  0  0
   -8.9661   -1.4310   -0.1156 H   0  0  0  0  0  0  0  0  0  0  0  0
  -10.7356   -0.3470    1.1404 H   0  0  0  0  0  0  0  0  0  0  0  0
   -7.6592   -1.5618   -1.9650 H   0  0  0  0  0  0  0  0  0  0  0  0
   -3.9110   -3.8251   -3.6722 H   0  0  0  0  0  0  0  0  0  0  0  0
   -0.9541   -2.2441   -2.5557 H   0  0  0  0  0  0  0  0  0  0  0  0
    0.9069   -1.8197   -1.3601 H   0  0  0  0  0  0  0  0  0  0  0  0
    3.2753   -1.3751   -1.3742 H   0  0  0  0  0  0  0  0  0  0  0  0
    3.9577   -1.2413    0.9975 H   0  0  0  0  0  0  0  0  0  0  0  0
    4.0809    0.5596    0.8705 H   0  0  0  0  0  0  0  0  0  0  0  0
    6.1744   -0.8856    1.6957 H   0  0  0  0  0  0  0  0  0  0  0  0
    7.8071    2.3473    1.9726 H   0  0  0  0  0  0  0  0  0  0  0  0
    7.1541    1.7409    4.2622 H   0  0  0  0  0  0  0  0  0  0  0  0
    6.0897    0.4197    3.6453 H   0  0  0  0  0  0  0  0  0  0  0  0
    5.7135    2.1395    3.2537 H   0  0  0  0  0  0  0  0  0  0  0  0
    8.2874   -0.5027    2.9521 H   0  0  0  0  0  0  0  0  0  0  0  0
   10.0139    1.6961    2.3283 H   0  0  0  0  0  0  0  0  0  0  0  0
    9.2892    0.6456    0.2866 H   0  0  0  0  0  0  0  0  0  0  0  0
    9.9448   -1.7284    1.7350 H   0  0  0  0  0  0  0  0  0  0  0  0
    7.8879   -0.7471   -0.8458 H   0  0  0  0  0  0  0  0  0  0  0  0
    7.2267   -2.7330   -0.1556 H   0  0  0  0  0  0  0  0  0  0  0  0
    3.7755    1.6548   -1.2523 H   0  0  0  0  0  0  0  0  0  0  0  0
    5.0861    0.5410   -2.5629 H   0  0  0  0  0  0  0  0  0  0  0  0
    2.1216    1.7499   -3.3352 H   0  0  0  0  0  0  0  0  0  0  0  0
    0.6733    2.6663   -1.9623 H   0  0  0  0  0  0  0  0  0  0  0  0
    0.0131    0.4631   -2.8570 H   0  0  0  0  0  0  0  0  0  0  0  0
    0.7500   -1.2966   -3.8917 H   0  0  0  0  0  0  0  0  0  0  0  0
   -2.7043    0.3452    0.3892 H   0  0  0  0  0  0  0  0  0  0  0  0
  1  2  1  0
  2  3  1  0
  3  4  2  0
  4  5  1  0
  4  6  1  0
  6  7  2  0
  7  8  1  0
  8  9  2  0
  7 10  1  0
 10 11  2  0
 11 12  1  0
 12 13  2  0
 12 14  1  0
 14 15  2  0
 15 16  1  0
 15 17  1  0
 17 18  2  0
 18 19  1  0
 19 20  1  0
 20 21  1  0
 21 22  1  0
 22 23  1  0
 23 24  1  0
 24 25  1  0
 25 26  1  0
 26 27  1  0
 27 28  1  0
 27 29  1  0
 29 30  1  0
 29 31  1  0
 31 32  1  0
 31 33  1  0
 33 34  1  0
 22 35  1  0
 35 36  1  0
 35 37  1  0
 37 38  1  0
 37 39  1  0
 39 40  1  0
 18 41  1  0
 41 42  2  0
 42 43  1  0
  9  3  1  0
 43 10  1  0
 42 14  1  0
 39 20  1  0
 33 25  1  0
  1 44  1  0
  1 45  1  0
  1 46  1  0
  5 47  1  0
  6 48  1  0
  8 49  1  0
  9 50  1  0
 11 51  1  0
 16 52  1  0
 17 53  1  0
 20 54  1  6
 22 55  1  6
 23 56  1  0
 23 57  1  0
 25 58  1  1
 27 59  1  6
 28 60  1  0
 28 61  1  0
 28 62  1  0
 29 63  1  1
 30 64  1  0
 31 65  1  6
 32 66  1  0
 33 67  1  6
 34 68  1  0
 35 69  1  1
 36 70  1  0
 37 71  1  6
 38 72  1  0
 39 73  1  6
 40 74  1  0
 41 75  1  0
M  END
$$$$
