
     RDKit          3D

 42 45  0  0  0  0  0  0  0  0999 V2000
    7.0236   -0.2114   -0.1002 C   0  0  0  0  0  0  0  0  0  0  0  0
    5.6008   -0.2762    0.2370 N   0  0  0  0  0  0  0  0  0  0  0  0
    4.8537    0.7402   -0.5114 C   0  0  0  0  0  0  0  0  0  0  0  0
    3.3825    0.5926   -0.2365 C   0  0  0  0  0  0  0  0  0  0  0  0
    2.6156   -0.3259   -0.9697 C   0  0  0  0  0  0  0  0  0  0  0  0
    1.2555   -0.4899   -0.6920 C   0  0  0  0  0  0  0  0  0  0  0  0
    0.6433    0.2651    0.3203 C   0  0  0  0  0  0  0  0  0  0  0  0
    1.4184    1.1541    1.0792 C   0  0  0  0  0  0  0  0  0  0  0  0
    2.7786    1.3189    0.8016 C   0  0  0  0  0  0  0  0  0  0  0  0
   -0.7840    0.0775    0.6430 C   0  0  0  0  0  0  0  0  0  0  0  0
   -1.8641    0.1449   -0.2443 C   0  0  0  0  0  0  0  0  0  0  0  0
   -1.8313    0.5208   -1.6935 C   0  0  0  0  0  0  0  0  0  0  0  0
   -2.7902   -0.3582   -2.4859 C   0  0  0  0  0  0  0  0  0  0  0  0
   -4.1517    0.1468   -2.3670 N   0  0  0  0  0  0  0  0  0  0  0  0
   -4.9274    0.1577   -1.1580 C   0  0  0  0  0  0  0  0  0  0  0  0
   -6.1528    0.4409   -1.2523 O   0  0  0  0  0  0  0  0  0  0  0  0
   -4.3697   -0.1391    0.1943 C   0  0  0  0  0  0  0  0  0  0  0  0
   -2.9968   -0.1007    0.5182 C   0  0  0  0  0  0  0  0  0  0  0  0
   -2.5528   -0.3109    1.8059 C   0  0  0  0  0  0  0  0  0  0  0  0
   -1.2180   -0.1954    1.8925 N   0  0  0  0  0  0  0  0  0  0  0  0
   -3.4247   -0.5913    2.8523 C   0  0  0  0  0  0  0  0  0  0  0  0
   -4.7946   -0.6536    2.5678 C   0  0  0  0  0  0  0  0  0  0  0  0
   -5.6764   -0.9249    3.5612 F   0  0  0  0  0  0  0  0  0  0  0  0
   -5.2626   -0.4258    1.2582 C   0  0  0  0  0  0  0  0  0  0  0  0
    7.4422    0.7927    0.1328 H   0  0  0  0  0  0  0  0  0  0  0  0
    7.1762   -0.4408   -1.1769 H   0  0  0  0  0  0  0  0  0  0  0  0
    7.5766   -0.9698    0.4932 H   0  0  0  0  0  0  0  0  0  0  0  0
    5.5113   -0.0599    1.2580 H   0  0  0  0  0  0  0  0  0  0  0  0
    5.0319    0.6209   -1.6038 H   0  0  0  0  0  0  0  0  0  0  0  0
    5.1940    1.7617   -0.2251 H   0  0  0  0  0  0  0  0  0  0  0  0
    3.0730   -0.9208   -1.7507 H   0  0  0  0  0  0  0  0  0  0  0  0
    0.6866   -1.2219   -1.2520 H   0  0  0  0  0  0  0  0  0  0  0  0
    0.9681    1.7256    1.8818 H   0  0  0  0  0  0  0  0  0  0  0  0
    3.3611    2.0104    1.3978 H   0  0  0  0  0  0  0  0  0  0  0  0
   -2.1051    1.5924   -1.8035 H   0  0  0  0  0  0  0  0  0  0  0  0
   -0.8123    0.3974   -2.1084 H   0  0  0  0  0  0  0  0  0  0  0  0
   -2.4907   -0.3350   -3.5567 H   0  0  0  0  0  0  0  0  0  0  0  0
   -2.7441   -1.4180   -2.1504 H   0  0  0  0  0  0  0  0  0  0  0  0
   -4.6236    0.4590   -3.2461 H   0  0  0  0  0  0  0  0  0  0  0  0
   -0.6334   -0.3072    2.7512 H   0  0  0  0  0  0  0  0  0  0  0  0
   -3.0569   -0.7546    3.8572 H   0  0  0  0  0  0  0  0  0  0  0  0
   -6.3298   -0.4738    1.0809 H   0  0  0  0  0  0  0  0  0  0  0  0
  1  2  1  0
  2  3  1  0
  3  4  1  0
  4  5  2  0
  5  6  1  0
  6  7  2  0
  7  8  1  0
  8  9  2  0
  7 10  1  0
 10 11  2  0
 11 12  1  0
 12 13  1  0
 13 14  1  0
 14 15  1  0
 15 16  2  0
 15 17  1  0
 17 18  2  0
 18 19  1  0
 19 20  1  0
 19 21  2  0
 21 22  1  0
 22 23  1  0
 22 24  2  0
  9  4  1  0
 20 10  1  0
 18 11  1  0
 24 17  1  0
  1 25  1  0
  1 26  1  0
  1 27  1  0
  2 28  1  0
  3 29  1  0
  3 30  1  0
  5 31  1  0
  6 32  1  0
  8 33  1  0
  9 34  1  0
 12 35  1  0
 12 36  1  0
 13 37  1  0
 13 38  1  0
 14 39  1  0
 20 40  1  0
 21 41  1  0
 24 42  1  0
M  END
$$$$
