
     RDKit          3D

 53 55  0  0  0  0  0  0  0  0999 V2000
   -1.5779   -0.7248   -0.1885 N   0  0  0  0  0  0  0  0  0  0  0  0
   -0.2204   -1.1495    0.0201 C   0  0  0  0  0  0  0  0  0  0  0  0
    0.3323   -2.1246   -0.8214 C   0  0  0  0  0  0  0  0  0  0  0  0
    1.6571   -2.5363   -0.6539 C   0  0  0  0  0  0  0  0  0  0  0  0
    2.4596   -1.9674    0.3411 C   0  0  0  0  0  0  0  0  0  0  0  0
    3.7846   -2.4176    0.4603 O   0  0  0  0  0  0  0  0  0  0  0  0
    4.7914   -1.8300    1.2869 C   0  0  0  0  0  0  0  0  0  0  0  0
    5.2693   -0.4824    0.7148 C   0  0  1  0  0  0  0  0  0  0  0  0
    6.1952    0.0855    1.6050 O   0  0  0  0  0  0  0  0  0  0  0  0
    5.9396   -0.6797   -0.6699 C   0  0  0  0  0  0  0  0  0  0  0  0
    6.0397    0.5487   -1.4920 N   0  0  0  0  0  0  0  0  0  0  0  0
    6.8092    1.6236   -0.8485 C   0  0  0  0  0  0  0  0  0  0  0  0
    4.7335    1.0343   -1.9665 C   0  0  0  0  0  0  0  0  0  0  0  0
    1.9124   -0.9757    1.1777 C   0  0  0  0  0  0  0  0  0  0  0  0
    0.5868   -0.5642    1.0106 C   0  0  0  0  0  0  0  0  0  0  0  0
   -2.4754   -0.3442    0.8640 C   0  0  0  0  0  0  0  0  0  0  0  0
   -2.1837   -0.6179    2.1636 N   0  0  0  0  0  0  0  0  0  0  0  0
   -3.0425   -0.2842    3.1598 C   0  0  0  0  0  0  0  0  0  0  0  0
   -4.2540    0.3406    2.8607 C   0  0  0  0  0  0  0  0  0  0  0  0
   -5.4559    0.7726    4.2894 Br  0  0  0  0  0  0  0  0  0  0  0  0
   -4.5573    0.5989    1.5130 C   0  0  0  0  0  0  0  0  0  0  0  0
   -3.6561    0.2522    0.5534 N   0  0  0  0  0  0  0  0  0  0  0  0
   -5.7790    1.2619    1.1437 N   0  0  0  0  0  0  0  0  0  0  0  0
   -6.3497    1.2042   -0.1751 C   0  0  0  0  0  0  0  0  0  0  0  0
   -6.2439    0.0469   -0.9697 C   0  0  0  0  0  0  0  0  0  0  0  0
   -6.8272    0.0081   -2.2401 C   0  0  0  0  0  0  0  0  0  0  0  0
   -7.5307    1.1145   -2.7225 C   0  0  0  0  0  0  0  0  0  0  0  0
   -7.6595    2.2591   -1.9317 C   0  0  0  0  0  0  0  0  0  0  0  0
   -7.0782    2.3018   -0.6607 C   0  0  0  0  0  0  0  0  0  0  0  0
   -1.9650   -0.7714   -1.1584 H   0  0  0  0  0  0  0  0  0  0  0  0
   -0.2690   -2.5735   -1.6021 H   0  0  0  0  0  0  0  0  0  0  0  0
    2.0659   -3.2972   -1.3067 H   0  0  0  0  0  0  0  0  0  0  0  0
    4.4132   -1.7094    2.3244 H   0  0  0  0  0  0  0  0  0  0  0  0
    5.6542   -2.5282    1.3379 H   0  0  0  0  0  0  0  0  0  0  0  0
    4.3900    0.1874    0.6130 H   0  0  0  0  0  0  0  0  0  0  0  0
    5.6736    0.4748    2.3551 H   0  0  0  0  0  0  0  0  0  0  0  0
    6.9583   -1.1019   -0.5231 H   0  0  0  0  0  0  0  0  0  0  0  0
    5.3875   -1.4476   -1.2549 H   0  0  0  0  0  0  0  0  0  0  0  0
    6.2366    2.0933   -0.0195 H   0  0  0  0  0  0  0  0  0  0  0  0
    7.7718    1.2305   -0.4565 H   0  0  0  0  0  0  0  0  0  0  0  0
    7.0507    2.4080   -1.5970 H   0  0  0  0  0  0  0  0  0  0  0  0
    4.1250    0.1970   -2.3711 H   0  0  0  0  0  0  0  0  0  0  0  0
    4.8874    1.7601   -2.7931 H   0  0  0  0  0  0  0  0  0  0  0  0
    4.1635    1.5429   -1.1601 H   0  0  0  0  0  0  0  0  0  0  0  0
    2.4998   -0.5105    1.9563 H   0  0  0  0  0  0  0  0  0  0  0  0
    0.2028    0.2274    1.6401 H   0  0  0  0  0  0  0  0  0  0  0  0
   -2.7835   -0.5106    4.1855 H   0  0  0  0  0  0  0  0  0  0  0  0
   -6.2280    1.9019    1.8364 H   0  0  0  0  0  0  0  0  0  0  0  0
   -5.7322   -0.8327   -0.6021 H   0  0  0  0  0  0  0  0  0  0  0  0
   -6.7408   -0.8837   -2.8474 H   0  0  0  0  0  0  0  0  0  0  0  0
   -7.9828    1.0820   -3.7054 H   0  0  0  0  0  0  0  0  0  0  0  0
   -8.2116    3.1129   -2.3027 H   0  0  0  0  0  0  0  0  0  0  0  0
   -7.1865    3.1940   -0.0568 H   0  0  0  0  0  0  0  0  0  0  0  0
  1  2  1  0
  2  3  2  0
  3  4  1  0
  4  5  2  0
  5  6  1  0
  6  7  1  0
  7  8  1  0
  8  9  1  0
  8 10  1  0
 10 11  1  0
 11 12  1  0
 11 13  1  0
  5 14  1  0
 14 15  2  0
  1 16  1  0
 16 17  2  0
 17 18  1  0
 18 19  2  0
 19 20  1  0
 19 21  1  0
 21 22  2  0
 21 23  1  0
 23 24  1  0
 24 25  2  0
 25 26  1  0
 26 27  2  0
 27 28  1  0
 28 29  2  0
 15  2  1  0
 22 16  1  0
 29 24  1  0
  1 30  1  0
  3 31  1  0
  4 32  1  0
  7 33  1  0
  7 34  1  0
  8 35  1  6
  9 36  1  0
 10 37  1  0
 10 38  1  0
 12 39  1  0
 12 40  1  0
 12 41  1  0
 13 42  1  0
 13 43  1  0
 13 44  1  0
 14 45  1  0
 15 46  1  0
 18 47  1  0
 23 48  1  0
 25 49  1  0
 26 50  1  0
 27 51  1  0
 28 52  1  0
 29 53  1  0
M  END
$$$$
