
     RDKit          3D

 53 54  0  0  0  0  0  0  0  0999 V2000
   -1.3580   -0.6605    0.6891 C   0  0  1  0  0  0  0  0  0  0  0  0
   -2.4037   -1.0342   -0.3926 C   0  0  0  0  0  0  0  0  0  0  0  0
   -1.9268   -2.1311   -1.3784 C   0  0  0  0  0  0  0  0  0  0  0  0
   -2.9044   -2.2358   -2.5563 C   0  0  0  0  0  0  0  0  0  0  0  0
   -1.7912   -3.5001   -0.6949 C   0  0  0  0  0  0  0  0  0  0  0  0
   -0.0509   -0.3062    0.0739 N   0  0  0  0  0  0  0  0  0  0  0  0
    0.0343    0.8591   -0.8398 C   0  0  0  0  0  0  0  0  0  0  0  0
   -0.1613    2.2005   -0.1724 C   0  0  0  0  0  0  0  0  0  0  0  0
    0.9189    2.8617    0.4369 C   0  0  0  0  0  0  0  0  0  0  0  0
    0.7369    4.1127    1.0340 C   0  0  0  0  0  0  0  0  0  0  0  0
   -0.5175    4.7267    1.0046 C   0  0  0  0  0  0  0  0  0  0  0  0
   -1.5870    4.0980    0.3630 C   0  0  0  0  0  0  0  0  0  0  0  0
   -1.4076    2.8474   -0.2354 C   0  0  0  0  0  0  0  0  0  0  0  0
    1.3824   -0.5663    1.0927 P   0  0  2  0  0  5  0  0  0  0  0  0
    1.3350   -2.1896    1.9083 C   0  0  0  0  0  0  0  0  0  0  0  0
    1.4885    0.5010    2.1579 O   0  0  0  0  0  0  0  0  0  0  0  0
    2.8550   -0.5543    0.0638 C   0  0  0  0  0  0  0  0  0  0  0  0
    2.8990   -1.3463   -1.0923 C   0  0  0  0  0  0  0  0  0  0  0  0
    4.0434   -1.3530   -1.8956 C   0  0  0  0  0  0  0  0  0  0  0  0
    5.1503   -0.5753   -1.5434 C   0  0  0  0  0  0  0  0  0  0  0  0
    5.1148    0.2077   -0.3858 C   0  0  0  0  0  0  0  0  0  0  0  0
    3.9716    0.2165    0.4197 C   0  0  0  0  0  0  0  0  0  0  0  0
   -1.8518    0.3709    1.6951 C   0  0  0  0  0  0  0  0  0  0  0  0
   -1.1521    0.6037    2.7160 O   0  0  0  0  0  0  0  0  0  0  0  0
   -3.1169    1.0379    1.5678 N   0  0  0  0  0  0  0  0  0  0  0  0
   -3.5032    1.9414    2.5002 O   0  0  0  0  0  0  0  0  0  0  0  0
   -1.2273   -1.5843    1.2846 H   0  0  0  0  0  0  0  0  0  0  0  0
   -2.6680   -0.1251   -0.9726 H   0  0  0  0  0  0  0  0  0  0  0  0
   -3.3350   -1.3844    0.1062 H   0  0  0  0  0  0  0  0  0  0  0  0
   -0.9359   -1.8519   -1.7978 H   0  0  0  0  0  0  0  0  0  0  0  0
   -2.9673   -1.2640   -3.0911 H   0  0  0  0  0  0  0  0  0  0  0  0
   -2.5543   -3.0010   -3.2818 H   0  0  0  0  0  0  0  0  0  0  0  0
   -3.9190   -2.5161   -2.1997 H   0  0  0  0  0  0  0  0  0  0  0  0
   -0.9792   -3.4847    0.0587 H   0  0  0  0  0  0  0  0  0  0  0  0
   -1.5291   -4.2788   -1.4427 H   0  0  0  0  0  0  0  0  0  0  0  0
   -2.7428   -3.7886   -0.1992 H   0  0  0  0  0  0  0  0  0  0  0  0
    1.0174    0.8577   -1.3555 H   0  0  0  0  0  0  0  0  0  0  0  0
   -0.6954    0.7405   -1.6666 H   0  0  0  0  0  0  0  0  0  0  0  0
    1.9054    2.4180    0.4380 H   0  0  0  0  0  0  0  0  0  0  0  0
    1.5712    4.6103    1.5112 H   0  0  0  0  0  0  0  0  0  0  0  0
   -0.6568    5.6958    1.4659 H   0  0  0  0  0  0  0  0  0  0  0  0
   -2.5545    4.5815    0.3248 H   0  0  0  0  0  0  0  0  0  0  0  0
   -2.2420    2.3821   -0.7443 H   0  0  0  0  0  0  0  0  0  0  0  0
    1.1686   -2.9819    1.1508 H   0  0  0  0  0  0  0  0  0  0  0  0
    0.5254   -2.2134    2.6656 H   0  0  0  0  0  0  0  0  0  0  0  0
    2.3040   -2.3715    2.4171 H   0  0  0  0  0  0  0  0  0  0  0  0
    2.0467   -1.9528   -1.3729 H   0  0  0  0  0  0  0  0  0  0  0  0
    4.0724   -1.9615   -2.7902 H   0  0  0  0  0  0  0  0  0  0  0  0
    6.0358   -0.5813   -2.1657 H   0  0  0  0  0  0  0  0  0  0  0  0
    5.9736    0.8066   -0.1119 H   0  0  0  0  0  0  0  0  0  0  0  0
    3.9599    0.8247    1.3149 H   0  0  0  0  0  0  0  0  0  0  0  0
   -3.7495    0.8746    0.7558 H   0  0  0  0  0  0  0  0  0  0  0  0
   -4.0222    1.4171    3.1622 H   0  0  0  0  0  0  0  0  0  0  0  0
  1  2  1  0
  2  3  1  0
  3  4  1  0
  3  5  1  0
  1  6  1  0
  6  7  1  0
  7  8  1  0
  8  9  2  0
  9 10  1  0
 10 11  2  0
 11 12  1  0
 12 13  2  0
 14  6  1  6
 14 15  1  0
 14 16  2  0
 14 17  1  0
 17 18  2  0
 18 19  1  0
 19 20  2  0
 20 21  1  0
 21 22  2  0
  1 23  1  0
 23 24  2  0
 23 25  1  0
 25 26  1  0
 13  8  1  0
 22 17  1  0
  1 27  1  1
  2 28  1  0
  2 29  1  0
  3 30  1  0
  4 31  1  0
  4 32  1  0
  4 33  1  0
  5 34  1  0
  5 35  1  0
  5 36  1  0
  7 37  1  0
  7 38  1  0
  9 39  1  0
 10 40  1  0
 11 41  1  0
 12 42  1  0
 13 43  1  0
 15 44  1  0
 15 45  1  0
 15 46  1  0
 18 47  1  0
 19 48  1  0
 20 49  1  0
 21 50  1  0
 22 51  1  0
 25 52  1  0
 26 53  1  0
M  END
$$$$
