
     RDKit          3D

 38 41  0  0  0  0  0  0  0  0999 V2000
    2.5527    1.9780    4.5812 Br  0  0  0  0  0  0  0  0  0  0  0  0
    3.1724    1.2064    2.9476 C   0  0  0  0  0  0  0  0  0  0  0  0
    4.5371    0.9711    2.7607 C   0  0  0  0  0  0  0  0  0  0  0  0
    4.9896    0.3938    1.5727 C   0  0  0  0  0  0  0  0  0  0  0  0
    4.0808    0.0544    0.5662 C   0  0  0  0  0  0  0  0  0  0  0  0
    2.7048    0.2975    0.7343 C   0  0  0  0  0  0  0  0  0  0  0  0
    2.2588    0.8695    1.9426 C   0  0  0  0  0  0  0  0  0  0  0  0
    1.7515   -0.0766   -0.3403 C   0  0  0  0  0  0  0  0  0  0  0  0
    2.0535   -1.1277   -1.1640 N   0  0  0  0  0  0  0  0  0  0  0  0
    1.1826   -1.4782   -2.1401 C   0  0  0  0  0  0  0  0  0  0  0  0
    0.0359   -0.8224   -2.3201 N   0  0  0  0  0  4  0  0  0  0  0  0
   -0.5658   -1.3497   -3.3667 N   0  0  0  0  0  0  0  0  0  0  0  0
    0.2419   -2.3454   -3.7961 C   0  0  0  0  0  0  0  0  0  0  0  0
    1.3692   -2.4602   -3.0434 N   0  0  0  0  0  0  0  0  0  0  0  0
   -0.3365    0.2331   -1.5524 C   0  0  0  0  0  0  0  0  0  0  0  0
   -1.5877    0.9022   -1.7471 N   0  0  0  0  0  0  0  0  0  0  0  0
   -2.8476    0.2060   -1.5012 C   0  0  0  0  0  0  0  0  0  0  0  0
   -3.1576    0.2244   -0.0300 C   0  0  0  0  0  0  0  0  0  0  0  0
   -2.6400   -0.7692    0.8140 C   0  0  0  0  0  0  0  0  0  0  0  0
   -2.8928   -0.7059    2.1863 C   0  0  0  0  0  0  0  0  0  0  0  0
   -3.6269    0.3176    2.6981 N   0  0  0  0  0  0  0  0  0  0  0  0
   -4.1299    1.3004    1.9045 C   0  0  0  0  0  0  0  0  0  0  0  0
   -3.8989    1.2763    0.5268 C   0  0  0  0  0  0  0  0  0  0  0  0
    0.5429    0.6410   -0.5372 C   0  0  0  0  0  0  0  0  0  0  0  0
    5.2459    1.2302    3.5366 H   0  0  0  0  0  0  0  0  0  0  0  0
    6.0466    0.2090    1.4309 H   0  0  0  0  0  0  0  0  0  0  0  0
    4.4558   -0.3868   -0.3490 H   0  0  0  0  0  0  0  0  0  0  0  0
    1.2047    1.0334    2.1226 H   0  0  0  0  0  0  0  0  0  0  0  0
   -1.4643   -1.0323   -3.7933 H   0  0  0  0  0  0  0  0  0  0  0  0
    0.0251   -2.9699   -4.6525 H   0  0  0  0  0  0  0  0  0  0  0  0
   -1.5986    1.9422   -1.6423 H   0  0  0  0  0  0  0  0  0  0  0  0
   -2.7937   -0.8436   -1.8600 H   0  0  0  0  0  0  0  0  0  0  0  0
   -3.6591    0.7053   -2.0734 H   0  0  0  0  0  0  0  0  0  0  0  0
   -2.0424   -1.5793    0.4143 H   0  0  0  0  0  0  0  0  0  0  0  0
   -2.5008   -1.4687    2.8455 H   0  0  0  0  0  0  0  0  0  0  0  0
   -4.7049    2.1045    2.3438 H   0  0  0  0  0  0  0  0  0  0  0  0
   -4.2902    2.0698   -0.0977 H   0  0  0  0  0  0  0  0  0  0  0  0
    0.2860    1.4933    0.0780 H   0  0  0  0  0  0  0  0  0  0  0  0
  1  2  1  0
  2  3  2  0
  3  4  1  0
  4  5  2  0
  5  6  1  0
  6  7  2  0
  6  8  1  0
  8  9  2  0
  9 10  1  0
 10 11  2  0
 11 12  1  0
 12 13  1  0
 13 14  2  0
 11 15  1  0
 15 16  1  0
 16 17  1  0
 17 18  1  0
 18 19  2  0
 19 20  1  0
 20 21  2  0
 21 22  1  0
 22 23  2  0
 15 24  2  0
  7  2  1  0
 24  8  1  0
 14 10  1  0
 23 18  1  0
  3 25  1  0
  4 26  1  0
  5 27  1  0
  7 28  1  0
 12 29  1  0
 13 30  1  0
 16 31  1  0
 17 32  1  0
 17 33  1  0
 19 34  1  0
 20 35  1  0
 22 36  1  0
 23 37  1  0
 24 38  1  0
M  CHG  1  11   1
M  END
$$$$
