
     RDKit          3D

 37 37  0  0  0  0  0  0  0  0999 V2000
   -0.0829    0.9491   -0.3017 C   0  0  2  0  0  0  0  0  0  0  0  0
    0.1227    2.2608    0.2392 O   0  0  0  0  0  0  0  0  0  0  0  0
   -0.3892    2.7106    1.4622 C   0  0  0  0  0  0  0  0  0  0  0  0
   -1.0371    1.8688    2.2736 C   0  0  0  0  0  0  0  0  0  0  0  0
   -1.3263    0.4560    1.8548 C   0  0  2  0  0  0  0  0  0  0  0  0
   -1.3491   -0.3716    2.9889 O   0  0  0  0  0  0  0  0  0  0  0  0
   -0.2800   -0.0754    0.8520 C   0  0  1  0  0  0  0  0  0  0  0  0
   -0.7563   -1.3637    0.3379 N   0  0  0  0  0  0  0  0  0  0  0  0
   -0.4427   -2.6126    0.9721 C   0  0  0  0  0  0  0  0  0  0  0  0
   -1.1081   -3.8687    0.5127 C   0  0  0  0  0  0  0  0  0  0  0  0
    0.3726   -2.6566    1.9327 O   0  0  0  0  0  0  0  0  0  0  0  0
   -0.1666    4.1161    1.8429 C   0  0  0  0  0  0  0  0  0  0  0  0
   -0.6416    4.6116    3.0549 O   0  0  0  0  0  0  0  0  0  0  0  0
    0.4611    4.8802    1.0622 O   0  0  0  0  0  0  0  0  0  0  0  0
    1.1266    0.6523   -1.2393 C   0  0  2  0  0  0  0  0  0  0  0  0
    1.3497    1.7739   -2.0618 O   0  0  0  0  0  0  0  0  0  0  0  0
    0.9870   -0.6394   -2.0985 C   0  0  2  0  0  0  0  0  0  0  0  0
    1.3726   -1.7468   -1.3250 O   0  0  0  0  0  0  0  0  0  0  0  0
    1.8711   -0.5972   -3.3624 C   0  0  0  0  0  0  0  0  0  0  0  0
    1.7489   -1.7906   -4.0902 O   0  0  0  0  0  0  0  0  0  0  0  0
   -1.0136    0.9800   -0.9108 H   0  0  0  0  0  0  0  0  0  0  0  0
   -1.4366    2.2161    3.2192 H   0  0  0  0  0  0  0  0  0  0  0  0
   -2.3260    0.4472    1.3590 H   0  0  0  0  0  0  0  0  0  0  0  0
   -2.2258   -0.2297    3.4333 H   0  0  0  0  0  0  0  0  0  0  0  0
    0.6946   -0.2036    1.3747 H   0  0  0  0  0  0  0  0  0  0  0  0
   -1.4953   -1.3629   -0.4019 H   0  0  0  0  0  0  0  0  0  0  0  0
   -1.1032   -3.9133   -0.5964 H   0  0  0  0  0  0  0  0  0  0  0  0
   -0.5742   -4.7589    0.9078 H   0  0  0  0  0  0  0  0  0  0  0  0
   -2.1571   -3.8835    0.8742 H   0  0  0  0  0  0  0  0  0  0  0  0
   -0.4890    5.5781    3.3172 H   0  0  0  0  0  0  0  0  0  0  0  0
    2.0315    0.5428   -0.6014 H   0  0  0  0  0  0  0  0  0  0  0  0
    0.5270    1.9152   -2.6008 H   0  0  0  0  0  0  0  0  0  0  0  0
   -0.0750   -0.7407   -2.4245 H   0  0  0  0  0  0  0  0  0  0  0  0
    0.9090   -2.5405   -1.7006 H   0  0  0  0  0  0  0  0  0  0  0  0
    2.9347   -0.4121   -3.0832 H   0  0  0  0  0  0  0  0  0  0  0  0
    1.5455    0.2318   -4.0249 H   0  0  0  0  0  0  0  0  0  0  0  0
    2.4210   -2.4226   -3.7233 H   0  0  0  0  0  0  0  0  0  0  0  0
  1  2  1  0
  2  3  1  0
  3  4  2  0
  4  5  1  0
  5  6  1  0
  5  7  1  0
  7  8  1  0
  8  9  1  0
  9 10  1  0
  9 11  2  0
  3 12  1  0
 12 13  1  0
 12 14  2  0
  1 15  1  0
 15 16  1  0
 15 17  1  0
 17 18  1  0
 17 19  1  0
 19 20  1  0
  7  1  1  0
  1 21  1  6
  4 22  1  0
  5 23  1  6
  6 24  1  0
  7 25  1  1
  8 26  1  0
 10 27  1  0
 10 28  1  0
 10 29  1  0
 13 30  1  0
 15 31  1  1
 16 32  1  0
 17 33  1  6
 18 34  1  0
 19 35  1  0
 19 36  1  0
 20 37  1  0
M  END
$$$$
