
     RDKit          3D

 30 31  0  0  0  0  0  0  0  0999 V2000
   -1.0085    2.6422    0.5603 C   0  0  0  0  0  0  0  0  0  0  0  0
   -1.1196    1.8031   -0.7084 C   0  0  0  0  0  0  0  0  0  0  0  0
   -1.3795    0.3561   -0.3746 C   0  0  0  0  0  0  0  0  0  0  0  0
   -0.3393   -0.5559   -0.0820 C   0  0  0  0  0  0  0  0  0  0  0  0
   -0.6948   -1.8757    0.2687 C   0  0  0  0  0  0  0  0  0  0  0  0
    0.2951   -2.8685    0.5602 N   0  0  0  0  0  0  0  0  0  0  0  0
   -2.0065   -2.2251    0.3228 N   0  0  0  0  0  0  0  0  0  0  0  0
   -2.9899   -1.3323    0.0480 C   0  0  0  0  0  0  0  0  0  0  0  0
   -4.3565   -1.7316    0.1194 N   0  0  0  0  0  0  0  0  0  0  0  0
   -2.6716   -0.0583   -0.2914 N   0  0  0  0  0  0  0  0  0  0  0  0
    1.0790   -0.1444   -0.1308 C   0  0  0  0  0  0  0  0  0  0  0  0
    1.7425   -0.0406   -1.3626 C   0  0  0  0  0  0  0  0  0  0  0  0
    3.0867    0.3416   -1.4058 C   0  0  0  0  0  0  0  0  0  0  0  0
    3.7762    0.6163   -0.2196 C   0  0  0  0  0  0  0  0  0  0  0  0
    5.4625    1.0957   -0.2753 Cl  0  0  0  0  0  0  0  0  0  0  0  0
    3.1199    0.5062    1.0113 C   0  0  0  0  0  0  0  0  0  0  0  0
    1.7758    0.1242    1.0570 C   0  0  0  0  0  0  0  0  0  0  0  0
   -0.1543    2.2993    1.1806 H   0  0  0  0  0  0  0  0  0  0  0  0
   -1.9445    2.5681    1.1543 H   0  0  0  0  0  0  0  0  0  0  0  0
   -0.8432    3.7060    0.2886 H   0  0  0  0  0  0  0  0  0  0  0  0
   -0.1970    1.9169   -1.3141 H   0  0  0  0  0  0  0  0  0  0  0  0
   -1.9585    2.1949   -1.3237 H   0  0  0  0  0  0  0  0  0  0  0  0
    1.3179   -2.6710    0.4977 H   0  0  0  0  0  0  0  0  0  0  0  0
   -0.0007   -3.8335    0.8276 H   0  0  0  0  0  0  0  0  0  0  0  0
   -5.1182   -1.0487   -0.0895 H   0  0  0  0  0  0  0  0  0  0  0  0
   -4.6083   -2.7104    0.3813 H   0  0  0  0  0  0  0  0  0  0  0  0
    1.2178   -0.2536   -2.2860 H   0  0  0  0  0  0  0  0  0  0  0  0
    3.5911    0.4228   -2.3602 H   0  0  0  0  0  0  0  0  0  0  0  0
    3.6498    0.7154    1.9318 H   0  0  0  0  0  0  0  0  0  0  0  0
    1.2765    0.0407    2.0145 H   0  0  0  0  0  0  0  0  0  0  0  0
  1  2  1  0
  2  3  1  0
  3  4  2  0
  4  5  1  0
  5  6  1  0
  5  7  2  0
  7  8  1  0
  8  9  1  0
  8 10  2  0
  4 11  1  0
 11 12  2  0
 12 13  1  0
 13 14  2  0
 14 15  1  0
 14 16  1  0
 16 17  2  0
 10  3  1  0
 17 11  1  0
  1 18  1  0
  1 19  1  0
  1 20  1  0
  2 21  1  0
  2 22  1  0
  6 23  1  0
  6 24  1  0
  9 25  1  0
  9 26  1  0
 12 27  1  0
 13 28  1  0
 16 29  1  0
 17 30  1  0
M  END
$$$$
