
     RDKit          3D

 85 87  0  0  0  0  0  0  0  0999 V2000
   -2.5557    0.1368    0.7957 C   0  0  1  0  0  0  0  0  0  0  0  0
   -1.8496   -1.2361    0.9700 C   0  0  0  0  0  0  0  0  0  0  0  0
   -0.3476   -0.9875    0.7815 C   0  0  0  0  0  0  0  0  0  0  0  0
   -0.2123    0.5243    0.9150 C   0  0  1  0  0  0  0  0  0  0  0  0
    1.0452    1.2419    0.4796 C   0  0  0  0  0  0  0  0  0  0  0  0
    1.0159    2.7470    0.7015 C   0  0  0  0  0  0  0  0  0  0  0  0
   -0.3270    3.3942    0.2848 C   0  0  0  0  0  0  0  0  0  0  0  0
   -1.5811    2.5763    0.6763 C   0  0  0  0  0  0  0  0  0  0  0  0
   -1.4611    1.0944    0.2267 C   0  0  2  0  0  0  0  0  0  0  0  0
   -1.3529    1.0079   -1.3236 C   0  0  0  0  0  0  0  0  0  0  0  0
    2.1441    0.5737    0.0761 C   0  0  0  0  0  0  0  0  0  0  0  0
    3.4454    1.2179   -0.2053 C   0  0  0  0  0  0  0  0  0  0  0  0
    4.3856    0.6898   -1.0167 C   0  0  0  0  0  0  0  0  0  0  0  0
    5.7718    1.2956   -0.9750 C   0  0  0  0  0  0  0  0  0  0  0  0
    6.8301    0.4497   -1.7136 C   0  0  1  0  0  0  0  0  0  0  0  0
    8.1157    0.8006   -1.2708 O   0  0  0  0  0  0  0  0  0  0  0  0
    6.6071   -1.0577   -1.4774 C   0  0  1  0  0  0  0  0  0  0  0  0
    6.6091   -1.3098   -0.0793 O   0  0  0  0  0  0  0  0  0  0  0  0
    7.2644   -2.5261    0.2146 C   0  0  0  0  0  0  0  0  0  0  0  0
    7.0901   -2.8362    1.7016 C   0  0  0  0  0  0  0  0  0  0  0  0
    7.8047   -4.1272    2.1043 C   0  0  0  0  0  0  0  0  0  0  0  0
    7.2105   -5.2258    1.4697 O   0  0  0  0  0  0  0  0  0  0  0  0
    5.2560   -1.5130   -2.0915 C   0  0  2  0  0  0  0  0  0  0  0  0
    5.4259   -1.8329   -3.4526 O   0  0  0  0  0  0  0  0  0  0  0  0
    4.1461   -0.4902   -1.9016 C   0  0  0  0  0  0  0  0  0  0  0  0
    3.0029   -0.6269   -2.5889 C   0  0  0  0  0  0  0  0  0  0  0  0
   -3.9834    0.0435    0.1466 C   0  0  2  0  0  0  0  0  0  0  0  0
   -4.0587   -0.5502   -1.2791 C   0  0  0  0  0  0  0  0  0  0  0  0
   -4.7357    1.3967    0.2240 C   0  0  0  0  0  0  0  0  0  0  0  0
   -6.2578    1.3008    0.0006 C   0  0  0  0  0  0  0  0  0  0  0  0
   -6.9866    0.5397    1.1276 C   0  0  0  0  0  0  0  0  0  0  0  0
   -8.5243    0.7393    1.1206 C   0  0  0  0  0  0  0  0  0  0  0  0
   -9.1282   -0.0359    2.3087 C   0  0  0  0  0  0  0  0  0  0  0  0
   -9.1397    0.2177   -0.1957 C   0  0  0  0  0  0  0  0  0  0  0  0
   -8.8042    2.1116    1.2721 O   0  0  0  0  0  0  0  0  0  0  0  0
   -2.7480    0.4857    1.8383 H   0  0  0  0  0  0  0  0  0  0  0  0
   -2.0395   -1.6291    1.9936 H   0  0  0  0  0  0  0  0  0  0  0  0
   -2.1909   -2.0100    0.2564 H   0  0  0  0  0  0  0  0  0  0  0  0
    0.2518   -1.5181    1.5531 H   0  0  0  0  0  0  0  0  0  0  0  0
   -0.0361   -1.3295   -0.2295 H   0  0  0  0  0  0  0  0  0  0  0  0
   -0.2844    0.7236    2.0125 H   0  0  0  0  0  0  0  0  0  0  0  0
    1.1915    2.9414    1.7814 H   0  0  0  0  0  0  0  0  0  0  0  0
    1.8129    3.2645    0.1295 H   0  0  0  0  0  0  0  0  0  0  0  0
   -0.3252    3.5600   -0.8139 H   0  0  0  0  0  0  0  0  0  0  0  0
   -0.3977    4.4006    0.7510 H   0  0  0  0  0  0  0  0  0  0  0  0
   -1.7167    2.6364    1.7787 H   0  0  0  0  0  0  0  0  0  0  0  0
   -2.4631    3.0588    0.2126 H   0  0  0  0  0  0  0  0  0  0  0  0
   -2.1647    1.5933   -1.8002 H   0  0  0  0  0  0  0  0  0  0  0  0
   -0.3974    1.4253   -1.6999 H   0  0  0  0  0  0  0  0  0  0  0  0
   -1.3933   -0.0396   -1.6819 H   0  0  0  0  0  0  0  0  0  0  0  0
    2.1031   -0.5015   -0.0246 H   0  0  0  0  0  0  0  0  0  0  0  0
    3.7028    2.1014    0.3667 H   0  0  0  0  0  0  0  0  0  0  0  0
    5.7401    2.3125   -1.4229 H   0  0  0  0  0  0  0  0  0  0  0  0
    6.0825    1.4033    0.0887 H   0  0  0  0  0  0  0  0  0  0  0  0
    6.7556    0.6557   -2.8065 H   0  0  0  0  0  0  0  0  0  0  0  0
    8.3130    1.6986   -1.6459 H   0  0  0  0  0  0  0  0  0  0  0  0
    7.4355   -1.5903   -2.0081 H   0  0  0  0  0  0  0  0  0  0  0  0
    8.3516   -2.4326   -0.0086 H   0  0  0  0  0  0  0  0  0  0  0  0
    6.8340   -3.3634   -0.3811 H   0  0  0  0  0  0  0  0  0  0  0  0
    7.5063   -1.9952    2.2980 H   0  0  0  0  0  0  0  0  0  0  0  0
    6.0071   -2.9243    1.9383 H   0  0  0  0  0  0  0  0  0  0  0  0
    7.7269   -4.2499    3.2075 H   0  0  0  0  0  0  0  0  0  0  0  0
    8.8821   -4.0639    1.8311 H   0  0  0  0  0  0  0  0  0  0  0  0
    7.7210   -6.0235    1.7661 H   0  0  0  0  0  0  0  0  0  0  0  0
    4.9346   -2.4442   -1.5776 H   0  0  0  0  0  0  0  0  0  0  0  0
    5.6091   -0.9902   -3.9435 H   0  0  0  0  0  0  0  0  0  0  0  0
    2.2238    0.1231   -2.5474 H   0  0  0  0  0  0  0  0  0  0  0  0
    2.8399   -1.4814   -3.2335 H   0  0  0  0  0  0  0  0  0  0  0  0
   -4.5248   -0.6739    0.7991 H   0  0  0  0  0  0  0  0  0  0  0  0
   -3.9302    0.2269   -2.0583 H   0  0  0  0  0  0  0  0  0  0  0  0
   -3.3207   -1.3533   -1.4550 H   0  0  0  0  0  0  0  0  0  0  0  0
   -5.0593   -1.0050   -1.4376 H   0  0  0  0  0  0  0  0  0  0  0  0
   -4.5567    1.8776    1.2105 H   0  0  0  0  0  0  0  0  0  0  0  0
   -4.3313    2.0783   -0.5529 H   0  0  0  0  0  0  0  0  0  0  0  0
   -6.6488    2.3397   -0.0515 H   0  0  0  0  0  0  0  0  0  0  0  0
   -6.4660    0.8252   -0.9799 H   0  0  0  0  0  0  0  0  0  0  0  0
   -6.5888    0.8847    2.1079 H   0  0  0  0  0  0  0  0  0  0  0  0
   -6.7648   -0.5456    1.0375 H   0  0  0  0  0  0  0  0  0  0  0  0
  -10.2325    0.0855    2.3356 H   0  0  0  0  0  0  0  0  0  0  0  0
   -8.7170    0.3452    3.2681 H   0  0  0  0  0  0  0  0  0  0  0  0
   -8.8974   -1.1203    2.2288 H   0  0  0  0  0  0  0  0  0  0  0  0
   -8.8256   -0.8308   -0.3880 H   0  0  0  0  0  0  0  0  0  0  0  0
  -10.2495    0.2469   -0.1458 H   0  0  0  0  0  0  0  0  0  0  0  0
   -8.8286    0.8504   -1.0530 H   0  0  0  0  0  0  0  0  0  0  0  0
   -9.7908    2.2276    1.2583 H   0  0  0  0  0  0  0  0  0  0  0  0
  1  2  1  0
  2  3  1  0
  3  4  1  0
  4  5  1  0
  5  6  1  0
  6  7  1  0
  7  8  1  0
  8  9  1  0
  9 10  1  6
  5 11  2  0
 11 12  1  0
 12 13  2  0
 13 14  1  0
 14 15  1  0
 15 16  1  0
 15 17  1  0
 17 18  1  0
 18 19  1  0
 19 20  1  0
 20 21  1  0
 21 22  1  0
 17 23  1  0
 23 24  1  0
 23 25  1  0
 25 26  2  3
  1 27  1  0
 27 28  1  0
 27 29  1  0
 29 30  1  0
 30 31  1  0
 31 32  1  0
 32 33  1  0
 32 34  1  0
 32 35  1  0
  9  1  1  0
 25 13  1  0
  9  4  1  0
  1 36  1  1
  2 37  1  0
  2 38  1  0
  3 39  1  0
  3 40  1  0
  4 41  1  1
  6 42  1  0
  6 43  1  0
  7 44  1  0
  7 45  1  0
  8 46  1  0
  8 47  1  0
 10 48  1  0
 10 49  1  0
 10 50  1  0
 11 51  1  0
 12 52  1  0
 14 53  1  0
 14 54  1  0
 15 55  1  6
 16 56  1  0
 17 57  1  6
 19 58  1  0
 19 59  1  0
 20 60  1  0
 20 61  1  0
 21 62  1  0
 21 63  1  0
 22 64  1  0
 23 65  1  1
 24 66  1  0
 26 67  1  0
 26 68  1  0
 27 69  1  1
 28 70  1  0
 28 71  1  0
 28 72  1  0
 29 73  1  0
 29 74  1  0
 30 75  1  0
 30 76  1  0
 31 77  1  0
 31 78  1  0
 33 79  1  0
 33 80  1  0
 33 81  1  0
 34 82  1  0
 34 83  1  0
 34 84  1  0
 35 85  1  0
M  END
$$$$
