
     RDKit          3D

 67 70  0  0  0  0  0  0  0  0999 V2000
   -1.4834   -1.1660    3.0421 C   0  0  0  0  0  0  0  0  0  0  0  0
   -1.3469    0.0828    2.2930 N   0  0  0  0  0  0  0  0  0  0  0  0
   -0.5468    1.1492    2.8935 C   0  0  0  0  0  0  0  0  0  0  0  0
   -2.3596    0.4436    1.3378 C   0  0  0  0  0  0  0  0  0  0  0  0
   -3.1843    1.3471    1.6496 O   0  0  0  0  0  0  0  0  0  0  0  0
   -2.5059   -0.2892   -0.0043 C   0  0  0  0  0  0  0  0  0  0  0  0
   -1.1434   -0.9441   -0.4199 C   0  0  0  0  0  0  0  0  0  0  0  0
   -0.0151    0.0620   -0.7319 C   0  0  0  0  0  0  0  0  0  0  0  0
    1.2958   -0.6247   -0.7659 N   0  0  0  0  0  0  0  0  0  0  0  0
    2.2142    0.0584   -1.6990 C   0  0  0  0  0  0  0  0  0  0  0  0
    3.5372   -0.7107   -1.8008 C   0  0  0  0  0  0  0  0  0  0  0  0
    4.2530   -0.8080   -0.4212 C   0  0  0  0  0  0  0  0  0  0  0  0
    5.3317   -1.7086   -0.5178 O   0  0  0  0  0  0  0  0  0  0  0  0
    3.2280   -1.4424    0.5568 C   0  0  0  0  0  0  0  0  0  0  0  0
    1.8962   -0.6740    0.5851 C   0  0  0  0  0  0  0  0  0  0  0  0
    4.8044    0.5639    0.0391 C   0  0  0  0  0  0  0  0  0  0  0  0
    5.6056    1.3256   -0.8435 C   0  0  0  0  0  0  0  0  0  0  0  0
    6.1433    2.5553   -0.4548 C   0  0  0  0  0  0  0  0  0  0  0  0
    5.9206    3.0432    0.8319 C   0  0  0  0  0  0  0  0  0  0  0  0
    6.5991    4.5860    1.3180 Cl  0  0  0  0  0  0  0  0  0  0  0  0
    5.1746    2.2904    1.7377 C   0  0  0  0  0  0  0  0  0  0  0  0
    4.6352    1.0586    1.3560 C   0  0  0  0  0  0  0  0  0  0  0  0
   -3.6261   -1.3355    0.2037 C   0  0  0  0  0  0  0  0  0  0  0  0
   -4.9475   -0.8895    0.4405 C   0  0  0  0  0  0  0  0  0  0  0  0
   -5.9908   -1.7966    0.6397 C   0  0  0  0  0  0  0  0  0  0  0  0
   -5.7421   -3.1674    0.6085 C   0  0  0  0  0  0  0  0  0  0  0  0
   -4.4493   -3.6341    0.3758 C   0  0  0  0  0  0  0  0  0  0  0  0
   -3.3991   -2.7336    0.1742 C   0  0  0  0  0  0  0  0  0  0  0  0
   -2.9147    0.6676   -1.1482 C   0  0  0  0  0  0  0  0  0  0  0  0
   -3.5237    0.1532   -2.3160 C   0  0  0  0  0  0  0  0  0  0  0  0
   -3.8454    0.9906   -3.3873 C   0  0  0  0  0  0  0  0  0  0  0  0
   -3.5377    2.3495   -3.3314 C   0  0  0  0  0  0  0  0  0  0  0  0
   -2.8919    2.8711   -2.2109 C   0  0  0  0  0  0  0  0  0  0  0  0
   -2.5682    2.0398   -1.1351 C   0  0  0  0  0  0  0  0  0  0  0  0
   -2.0838   -0.9876    3.9589 H   0  0  0  0  0  0  0  0  0  0  0  0
   -0.4811   -1.5473    3.3305 H   0  0  0  0  0  0  0  0  0  0  0  0
   -1.9864   -1.9452    2.4370 H   0  0  0  0  0  0  0  0  0  0  0  0
    0.4437    0.7538    3.2034 H   0  0  0  0  0  0  0  0  0  0  0  0
   -1.0723    1.5588    3.7819 H   0  0  0  0  0  0  0  0  0  0  0  0
   -0.3779    1.9695    2.1636 H   0  0  0  0  0  0  0  0  0  0  0  0
   -1.2945   -1.5632   -1.3321 H   0  0  0  0  0  0  0  0  0  0  0  0
   -0.8004   -1.6352    0.3742 H   0  0  0  0  0  0  0  0  0  0  0  0
   -0.2461    0.5145   -1.7225 H   0  0  0  0  0  0  0  0  0  0  0  0
   -0.0063    0.8993   -0.0022 H   0  0  0  0  0  0  0  0  0  0  0  0
    2.4015    1.1084   -1.3773 H   0  0  0  0  0  0  0  0  0  0  0  0
    1.7662    0.0851   -2.7170 H   0  0  0  0  0  0  0  0  0  0  0  0
    4.1750   -0.2410   -2.5754 H   0  0  0  0  0  0  0  0  0  0  0  0
    3.3167   -1.7373   -2.1702 H   0  0  0  0  0  0  0  0  0  0  0  0
    5.9247   -1.4083   -1.2555 H   0  0  0  0  0  0  0  0  0  0  0  0
    3.0101   -2.4821    0.2234 H   0  0  0  0  0  0  0  0  0  0  0  0
    3.6480   -1.5465    1.5785 H   0  0  0  0  0  0  0  0  0  0  0  0
    1.2200   -1.2052    1.2869 H   0  0  0  0  0  0  0  0  0  0  0  0
    2.0443    0.3522    0.9852 H   0  0  0  0  0  0  0  0  0  0  0  0
    5.8401    0.9697   -1.8360 H   0  0  0  0  0  0  0  0  0  0  0  0
    6.7436    3.1231   -1.1544 H   0  0  0  0  0  0  0  0  0  0  0  0
    5.0174    2.6549    2.7451 H   0  0  0  0  0  0  0  0  0  0  0  0
    4.0904    0.5141    2.1101 H   0  0  0  0  0  0  0  0  0  0  0  0
   -5.1754    0.1684    0.4601 H   0  0  0  0  0  0  0  0  0  0  0  0
   -6.9953   -1.4342    0.8168 H   0  0  0  0  0  0  0  0  0  0  0  0
   -6.5518   -3.8687    0.7632 H   0  0  0  0  0  0  0  0  0  0  0  0
   -4.2586   -4.6994    0.3516 H   0  0  0  0  0  0  0  0  0  0  0  0
   -2.4202   -3.1530    0.0004 H   0  0  0  0  0  0  0  0  0  0  0  0
   -3.7471   -0.9022   -2.4042 H   0  0  0  0  0  0  0  0  0  0  0  0
   -4.3247    0.5818   -4.2674 H   0  0  0  0  0  0  0  0  0  0  0  0
   -3.7834    2.9952   -4.1645 H   0  0  0  0  0  0  0  0  0  0  0  0
   -2.6283    3.9204   -2.1807 H   0  0  0  0  0  0  0  0  0  0  0  0
   -2.0255    2.4735   -0.3065 H   0  0  0  0  0  0  0  0  0  0  0  0
  1  2  1  0
  2  3  1  0
  2  4  1  0
  4  5  2  0
  4  6  1  0
  6  7  1  0
  7  8  1  0
  8  9  1  0
  9 10  1  0
 10 11  1  0
 11 12  1  0
 12 13  1  0
 12 14  1  0
 14 15  1  0
 12 16  1  0
 16 17  2  0
 17 18  1  0
 18 19  2  0
 19 20  1  0
 19 21  1  0
 21 22  2  0
  6 23  1  0
 23 24  2  0
 24 25  1  0
 25 26  2  0
 26 27  1  0
 27 28  2  0
  6 29  1  0
 29 30  2  0
 30 31  1  0
 31 32  2  0
 32 33  1  0
 33 34  2  0
 15  9  1  0
 22 16  1  0
 28 23  1  0
 34 29  1  0
  1 35  1  0
  1 36  1  0
  1 37  1  0
  3 38  1  0
  3 39  1  0
  3 40  1  0
  7 41  1  0
  7 42  1  0
  8 43  1  0
  8 44  1  0
 10 45  1  0
 10 46  1  0
 11 47  1  0
 11 48  1  0
 13 49  1  0
 14 50  1  0
 14 51  1  0
 15 52  1  0
 15 53  1  0
 17 54  1  0
 18 55  1  0
 21 56  1  0
 22 57  1  0
 24 58  1  0
 25 59  1  0
 26 60  1  0
 27 61  1  0
 28 62  1  0
 30 63  1  0
 31 64  1  0
 32 65  1  0
 33 66  1  0
 34 67  1  0
M  END
$$$$
