
     RDKit          3D

 63 66  0  0  0  0  0  0  0  0999 V2000
   -0.2593   -0.0795   -1.1729 C   0  0  2  0  0  0  0  0  0  0  0  0
    0.1572   -0.1880   -2.6333 C   0  0  0  0  0  0  0  0  0  0  0  0
    1.6128   -0.6898   -2.5774 C   0  0  0  0  0  0  0  0  0  0  0  0
    1.9167   -1.0399   -1.0842 C   0  0  2  0  0  0  0  0  0  0  0  0
    2.5584    0.0833   -0.4554 O   0  0  0  0  0  0  0  0  0  0  0  0
    3.8483    0.5476   -0.7474 C   0  0  0  0  0  0  0  0  0  0  0  0
    4.5597   -0.0246   -1.6191 O   0  0  0  0  0  0  0  0  0  0  0  0
    4.3366    1.6571   -0.0542 O   0  0  0  0  0  0  0  0  0  0  0  0
    5.6345    2.1956   -0.2835 C   0  0  0  0  0  0  0  0  0  0  0  0
    5.8578    3.3924    0.6269 C   0  0  0  0  0  0  0  0  0  0  0  0
    2.7929   -2.2676   -0.8938 C   0  0  0  0  0  0  0  0  0  0  0  0
    3.2704   -2.8850   -1.8858 O   0  0  0  0  0  0  0  0  0  0  0  0
    3.0870   -2.6916    0.4050 O   0  0  0  0  0  0  0  0  0  0  0  0
    3.8894   -3.8330    0.6774 C   0  0  0  0  0  0  0  0  0  0  0  0
    4.0142   -4.0507    2.4368 Cl  0  0  0  0  0  0  0  0  0  0  0  0
    0.4860   -1.2275   -0.4779 C   0  0  2  0  0  0  0  0  0  0  0  0
   -0.0576   -2.6470   -0.8704 C   0  0  0  0  0  0  0  0  0  0  0  0
    0.3865   -1.0077    1.0590 C   0  0  0  0  0  0  0  0  0  0  0  0
   -1.0675   -0.8100    1.5715 C   0  0  2  0  0  0  0  0  0  0  0  0
   -1.7022   -2.0507    1.7480 O   0  0  0  0  0  0  0  0  0  0  0  0
   -1.8968    0.2324    0.7271 C   0  0  1  0  0  0  0  0  0  0  0  0
   -1.7658    0.0072   -0.8217 C   0  0  1  0  0  0  0  0  0  0  0  0
   -2.4153    1.1749   -1.5994 C   0  0  0  0  0  0  0  0  0  0  0  0
   -3.8736    1.3844   -1.2000 C   0  0  0  0  0  0  0  0  0  0  0  0
   -3.9651    1.5858    0.2906 C   0  0  0  0  0  0  0  0  0  0  0  0
   -4.5482    2.6945    0.7742 C   0  0  0  0  0  0  0  0  0  0  0  0
   -4.5954    2.9509    2.2129 C   0  0  0  0  0  0  0  0  0  0  0  0
   -5.1641    3.9837    2.6546 O   0  0  0  0  0  0  0  0  0  0  0  0
   -3.9629    2.0097    3.1330 C   0  0  0  0  0  0  0  0  0  0  0  0
   -3.3836    0.8995    2.6749 C   0  0  0  0  0  0  0  0  0  0  0  0
   -3.3826    0.4923    1.2004 C   0  0  2  0  0  0  0  0  0  0  0  0
   -4.3022   -0.7457    1.0808 C   0  0  0  0  0  0  0  0  0  0  0  0
    0.1828    0.8841   -0.8172 H   0  0  0  0  0  0  0  0  0  0  0  0
   -0.4891   -0.9194   -3.1669 H   0  0  0  0  0  0  0  0  0  0  0  0
    0.0949    0.7979   -3.1438 H   0  0  0  0  0  0  0  0  0  0  0  0
    2.2981    0.0956   -2.9607 H   0  0  0  0  0  0  0  0  0  0  0  0
    1.7079   -1.5725   -3.2454 H   0  0  0  0  0  0  0  0  0  0  0  0
    6.4047    1.4229   -0.0697 H   0  0  0  0  0  0  0  0  0  0  0  0
    5.7253    2.5185   -1.3434 H   0  0  0  0  0  0  0  0  0  0  0  0
    5.7771    3.0807    1.6899 H   0  0  0  0  0  0  0  0  0  0  0  0
    5.0983    4.1753    0.4175 H   0  0  0  0  0  0  0  0  0  0  0  0
    6.8695    3.8145    0.4503 H   0  0  0  0  0  0  0  0  0  0  0  0
    3.4237   -4.7382    0.2335 H   0  0  0  0  0  0  0  0  0  0  0  0
    4.9072   -3.6902    0.2567 H   0  0  0  0  0  0  0  0  0  0  0  0
    0.2961   -3.4124   -0.1473 H   0  0  0  0  0  0  0  0  0  0  0  0
   -1.1530   -2.7159   -0.9287 H   0  0  0  0  0  0  0  0  0  0  0  0
    0.2958   -2.9629   -1.8736 H   0  0  0  0  0  0  0  0  0  0  0  0
    0.9576   -0.0988    1.3469 H   0  0  0  0  0  0  0  0  0  0  0  0
    0.8581   -1.8553    1.6014 H   0  0  0  0  0  0  0  0  0  0  0  0
   -0.9500   -0.3830    2.5898 H   0  0  0  0  0  0  0  0  0  0  0  0
   -2.1388   -2.3041    0.9012 H   0  0  0  0  0  0  0  0  0  0  0  0
   -1.3768    1.2010    0.9215 H   0  0  0  0  0  0  0  0  0  0  0  0
   -2.2903   -0.9174   -1.1260 H   0  0  0  0  0  0  0  0  0  0  0  0
   -2.3818    0.9639   -2.6901 H   0  0  0  0  0  0  0  0  0  0  0  0
   -1.8522    2.1177   -1.4173 H   0  0  0  0  0  0  0  0  0  0  0  0
   -4.2727    2.2586   -1.7604 H   0  0  0  0  0  0  0  0  0  0  0  0
   -4.4774    0.5013   -1.4976 H   0  0  0  0  0  0  0  0  0  0  0  0
   -4.9693    3.4343    0.1037 H   0  0  0  0  0  0  0  0  0  0  0  0
   -3.9693    2.2132    4.1968 H   0  0  0  0  0  0  0  0  0  0  0  0
   -2.9723    0.2162    3.4068 H   0  0  0  0  0  0  0  0  0  0  0  0
   -4.1028   -1.4886    1.8804 H   0  0  0  0  0  0  0  0  0  0  0  0
   -5.3660   -0.4431    1.1976 H   0  0  0  0  0  0  0  0  0  0  0  0
   -4.2013   -1.2470    0.0977 H   0  0  0  0  0  0  0  0  0  0  0  0
  1  2  1  0
  2  3  1  0
  3  4  1  0
  4  5  1  1
  5  6  1  0
  6  7  2  0
  6  8  1  0
  8  9  1  0
  9 10  1  0
  4 11  1  0
 11 12  2  0
 11 13  1  0
 13 14  1  0
 14 15  1  0
  4 16  1  0
 16 17  1  1
 16 18  1  0
 18 19  1  0
 19 20  1  0
 19 21  1  0
 21 22  1  0
 22 23  1  0
 23 24  1  0
 24 25  1  0
 25 26  2  0
 26 27  1  0
 27 28  2  0
 27 29  1  0
 29 30  2  0
 30 31  1  0
 31 32  1  1
 16  1  1  0
 31 21  1  0
 22  1  1  0
 31 25  1  0
  1 33  1  1
  2 34  1  0
  2 35  1  0
  3 36  1  0
  3 37  1  0
  9 38  1  0
  9 39  1  0
 10 40  1  0
 10 41  1  0
 10 42  1  0
 14 43  1  0
 14 44  1  0
 17 45  1  0
 17 46  1  0
 17 47  1  0
 18 48  1  0
 18 49  1  0
 19 50  1  1
 20 51  1  0
 21 52  1  6
 22 53  1  6
 23 54  1  0
 23 55  1  0
 24 56  1  0
 24 57  1  0
 26 58  1  0
 29 59  1  0
 30 60  1  0
 32 61  1  0
 32 62  1  0
 32 63  1  0
M  END
$$$$
