
     RDKit          3D

 74 76  0  0  0  0  0  0  0  0999 V2000
    1.2460    2.5736   -0.0669 C   0  0  0  0  0  0  0  0  0  0  0  0
    0.3683    2.2075    1.1374 C   0  0  0  0  0  0  0  0  0  0  0  0
    0.7948    3.9217   -0.6455 C   0  0  0  0  0  0  0  0  0  0  0  0
    1.2098    1.4937   -1.1789 C   0  0  0  0  0  0  0  0  0  0  0  0
    1.7852    0.1059   -0.8005 C   0  0  2  0  0  0  0  0  0  0  0  0
    0.7944   -0.7346   -0.0266 C   0  0  0  0  0  0  0  0  0  0  0  0
    1.0419   -1.0857    1.1599 O   0  0  0  0  0  0  0  0  0  0  0  0
   -0.4231   -1.1568   -0.6592 N   0  0  0  0  0  0  0  0  0  0  0  0
   -1.5498   -1.7187    0.0909 C   0  0  2  0  0  0  0  0  0  0  0  0
   -2.2601   -2.7932   -0.7559 C   0  0  0  0  0  0  0  0  0  0  0  0
   -3.3529   -3.5277    0.0340 C   0  0  0  0  0  0  0  0  0  0  0  0
   -4.0029   -4.5818   -0.8211 C   0  0  0  0  0  0  0  0  0  0  0  0
   -3.4844   -5.8872   -0.8550 C   0  0  0  0  0  0  0  0  0  0  0  0
   -4.0698   -6.8560   -1.6761 C   0  0  0  0  0  0  0  0  0  0  0  0
   -5.1684   -6.5265   -2.4749 C   0  0  0  0  0  0  0  0  0  0  0  0
   -5.6809   -5.2264   -2.4571 C   0  0  0  0  0  0  0  0  0  0  0  0
   -5.0986   -4.2545   -1.6375 C   0  0  0  0  0  0  0  0  0  0  0  0
   -2.4918   -0.6122    0.5075 C   0  0  0  0  0  0  0  0  0  0  0  0
   -3.0749    0.2054   -0.3803 C   0  0  0  0  0  0  0  0  0  0  0  0
   -4.2321    1.4211    0.1397 S   0  0  0  0  0  6  0  0  0  0  0  0
   -5.2731    0.7855    1.0186 O   0  0  0  0  0  0  0  0  0  0  0  0
   -4.9203    1.9901   -1.0693 O   0  0  0  0  0  0  0  0  0  0  0  0
   -3.4110    2.7106    1.0117 C   0  0  0  0  0  0  0  0  0  0  0  0
   -3.1930    2.5982    2.3925 C   0  0  0  0  0  0  0  0  0  0  0  0
   -2.5356    3.6199    3.0851 C   0  0  0  0  0  0  0  0  0  0  0  0
   -2.0910    4.7556    2.4019 C   0  0  0  0  0  0  0  0  0  0  0  0
   -2.2989    4.8683    1.0244 C   0  0  0  0  0  0  0  0  0  0  0  0
   -2.9549    3.8477    0.3289 C   0  0  0  0  0  0  0  0  0  0  0  0
    3.0633    0.2390   -0.0888 N   0  0  0  0  0  0  0  0  0  0  0  0
    4.3094    0.4187   -0.7846 C   0  0  0  0  0  0  0  0  0  0  0  0
    4.3124    0.5025   -2.0435 O   0  0  0  0  0  0  0  0  0  0  0  0
    5.5548    0.5168   -0.0625 N   0  0  0  0  0  0  0  0  0  0  0  0
    6.6451    1.3309   -0.6151 C   0  0  0  0  0  0  0  0  0  0  0  0
    7.9970    0.8397   -0.0901 C   0  0  0  0  0  0  0  0  0  0  0  0
    7.9802    0.7362    1.3196 O   0  0  0  0  0  0  0  0  0  0  0  0
    7.0749   -0.2780    1.7067 C   0  0  0  0  0  0  0  0  0  0  0  0
    5.6368    0.1058    1.3446 C   0  0  0  0  0  0  0  0  0  0  0  0
    2.2918    2.7042    0.2873 H   0  0  0  0  0  0  0  0  0  0  0  0
   -0.6418    1.8900    0.8052 H   0  0  0  0  0  0  0  0  0  0  0  0
    0.2664    3.0749    1.8229 H   0  0  0  0  0  0  0  0  0  0  0  0
    0.8353    1.3939    1.7249 H   0  0  0  0  0  0  0  0  0  0  0  0
    1.4626    4.2249   -1.4799 H   0  0  0  0  0  0  0  0  0  0  0  0
    0.8421    4.7134    0.1327 H   0  0  0  0  0  0  0  0  0  0  0  0
   -0.2464    3.8548   -1.0274 H   0  0  0  0  0  0  0  0  0  0  0  0
    1.8087    1.8694   -2.0378 H   0  0  0  0  0  0  0  0  0  0  0  0
    0.1691    1.3830   -1.5557 H   0  0  0  0  0  0  0  0  0  0  0  0
    1.9648   -0.4487   -1.7482 H   0  0  0  0  0  0  0  0  0  0  0  0
   -0.5646   -0.9230   -1.6684 H   0  0  0  0  0  0  0  0  0  0  0  0
   -1.1710   -2.2164    1.0108 H   0  0  0  0  0  0  0  0  0  0  0  0
   -1.5021   -3.5357   -1.0909 H   0  0  0  0  0  0  0  0  0  0  0  0
   -2.7028   -2.3317   -1.6660 H   0  0  0  0  0  0  0  0  0  0  0  0
   -2.9100   -3.9973    0.9397 H   0  0  0  0  0  0  0  0  0  0  0  0
   -4.1243   -2.8056    0.3801 H   0  0  0  0  0  0  0  0  0  0  0  0
   -2.6276   -6.1528   -0.2481 H   0  0  0  0  0  0  0  0  0  0  0  0
   -3.6695   -7.8614   -1.6959 H   0  0  0  0  0  0  0  0  0  0  0  0
   -5.6194   -7.2772   -3.1109 H   0  0  0  0  0  0  0  0  0  0  0  0
   -6.5274   -4.9706   -3.0812 H   0  0  0  0  0  0  0  0  0  0  0  0
   -5.4989   -3.2481   -1.6399 H   0  0  0  0  0  0  0  0  0  0  0  0
   -2.7149   -0.4987    1.5645 H   0  0  0  0  0  0  0  0  0  0  0  0
   -2.8624    0.1120   -1.4405 H   0  0  0  0  0  0  0  0  0  0  0  0
   -3.5283    1.7210    2.9309 H   0  0  0  0  0  0  0  0  0  0  0  0
   -2.3682    3.5300    4.1505 H   0  0  0  0  0  0  0  0  0  0  0  0
   -1.5795    5.5443    2.9382 H   0  0  0  0  0  0  0  0  0  0  0  0
   -1.9463    5.7435    0.4943 H   0  0  0  0  0  0  0  0  0  0  0  0
   -3.1015    3.9427   -0.7393 H   0  0  0  0  0  0  0  0  0  0  0  0
    3.0420    0.3985    0.9429 H   0  0  0  0  0  0  0  0  0  0  0  0
    6.6598    1.2778   -1.7250 H   0  0  0  0  0  0  0  0  0  0  0  0
    6.4939    2.3905   -0.3154 H   0  0  0  0  0  0  0  0  0  0  0  0
    8.2701   -0.1312   -0.5640 H   0  0  0  0  0  0  0  0  0  0  0  0
    8.7789    1.5725   -0.3808 H   0  0  0  0  0  0  0  0  0  0  0  0
    7.1412   -0.4090    2.8073 H   0  0  0  0  0  0  0  0  0  0  0  0
    7.3446   -1.2569    1.2474 H   0  0  0  0  0  0  0  0  0  0  0  0
    5.3015    0.9452    1.9916 H   0  0  0  0  0  0  0  0  0  0  0  0
    4.9873   -0.7772    1.5300 H   0  0  0  0  0  0  0  0  0  0  0  0
  1  2  1  0
  1  3  1  0
  1  4  1  0
  4  5  1  0
  5  6  1  0
  6  7  2  0
  6  8  1  0
  8  9  1  0
  9 10  1  0
 10 11  1  0
 11 12  1  0
 12 13  2  0
 13 14  1  0
 14 15  2  0
 15 16  1  0
 16 17  2  0
  9 18  1  0
 18 19  2  0
 19 20  1  0
 20 21  2  0
 20 22  2  0
 20 23  1  0
 23 24  2  0
 24 25  1  0
 25 26  2  0
 26 27  1  0
 27 28  2  0
  5 29  1  0
 29 30  1  0
 30 31  2  0
 30 32  1  0
 32 33  1  0
 33 34  1  0
 34 35  1  0
 35 36  1  0
 36 37  1  0
 17 12  1  0
 28 23  1  0
 37 32  1  0
  1 38  1  0
  2 39  1  0
  2 40  1  0
  2 41  1  0
  3 42  1  0
  3 43  1  0
  3 44  1  0
  4 45  1  0
  4 46  1  0
  5 47  1  6
  8 48  1  0
  9 49  1  1
 10 50  1  0
 10 51  1  0
 11 52  1  0
 11 53  1  0
 13 54  1  0
 14 55  1  0
 15 56  1  0
 16 57  1  0
 17 58  1  0
 18 59  1  0
 19 60  1  0
 24 61  1  0
 25 62  1  0
 26 63  1  0
 27 64  1  0
 28 65  1  0
 29 66  1  0
 33 67  1  0
 33 68  1  0
 34 69  1  0
 34 70  1  0
 36 71  1  0
 36 72  1  0
 37 73  1  0
 37 74  1  0
M  END
$$$$
