
     RDKit          3D

 42 44  0  0  0  0  0  0  0  0999 V2000
    1.5211    0.7659   -1.0382 C   0  0  1  0  0  0  0  0  0  0  0  0
    2.2328   -0.4780   -1.5798 C   0  0  0  0  0  0  0  0  0  0  0  0
    3.5527   -0.5161   -1.0894 O   0  0  0  0  0  0  0  0  0  0  0  0
    4.3020   -1.9340   -1.6696 P   0  0  0  0  0  5  0  0  0  0  0  0
    5.8698   -2.0230   -1.0400 O   0  0  0  0  0  0  0  0  0  0  0  0
    3.4310   -3.2981   -1.1722 O   0  0  0  0  0  0  0  0  0  0  0  0
    4.3757   -1.9021   -3.1804 O   0  0  0  0  0  0  0  0  0  0  0  0
    0.2164    0.8297   -1.5618 O   0  0  0  0  0  0  0  0  0  0  0  0
   -0.6040    1.4364   -0.5848 C   0  0  1  0  0  0  0  0  0  0  0  0
   -1.8106    0.6272   -0.3900 N   0  0  0  0  0  0  0  0  0  0  0  0
   -3.0984    1.0590   -0.3659 C   0  0  0  0  0  0  0  0  0  0  0  0
   -3.9991    0.0638   -0.1360 N   0  0  0  0  0  0  0  0  0  0  0  0
   -3.2151   -1.0235   -0.0130 C   0  0  0  0  0  0  0  0  0  0  0  0
   -3.5690   -2.3458    0.2310 C   0  0  0  0  0  0  0  0  0  0  0  0
   -4.9304   -2.7423    0.3963 N   0  0  0  0  0  0  0  0  0  0  0  0
   -2.5619   -3.2667    0.3085 N   0  0  0  0  0  0  0  0  0  0  0  0
   -1.2481   -2.9036    0.1516 C   0  0  0  0  0  0  0  0  0  0  0  0
   -0.9132   -1.6002   -0.0878 N   0  0  0  0  0  0  0  0  0  0  0  0
   -1.9133   -0.6896   -0.1630 C   0  0  0  0  0  0  0  0  0  0  0  0
    0.1755    1.5868    0.7314 C   0  0  2  0  0  0  0  0  0  0  0  0
    0.5394    2.9430    0.9239 O   0  0  0  0  0  0  0  0  0  0  0  0
   -0.5077    3.6705    2.0586 P   0  0  0  0  0  5  0  0  0  0  0  0
   -2.1196    3.4981    1.5705 O   0  0  0  0  0  0  0  0  0  0  0  0
   -0.2889    2.9586    3.5796 O   0  0  0  0  0  0  0  0  0  0  0  0
   -0.1755    5.1418    2.1571 O   0  0  0  0  0  0  0  0  0  0  0  0
    1.4160    0.7589    0.4797 C   0  0  2  0  0  0  0  0  0  0  0  0
    2.5628    1.3199    1.0657 O   0  0  0  0  0  0  0  0  0  0  0  0
    2.0770    1.6712   -1.3750 H   0  0  0  0  0  0  0  0  0  0  0  0
    2.2343   -0.4138   -2.6916 H   0  0  0  0  0  0  0  0  0  0  0  0
    1.6606   -1.3815   -1.2684 H   0  0  0  0  0  0  0  0  0  0  0  0
    6.2927   -1.1639   -1.2932 H   0  0  0  0  0  0  0  0  0  0  0  0
    3.9645   -4.0690   -1.4916 H   0  0  0  0  0  0  0  0  0  0  0  0
   -0.9024    2.4392   -0.9648 H   0  0  0  0  0  0  0  0  0  0  0  0
   -3.3872    2.0905   -0.5180 H   0  0  0  0  0  0  0  0  0  0  0  0
   -5.7048   -2.0441    0.3383 H   0  0  0  0  0  0  0  0  0  0  0  0
   -5.1668   -3.7428    0.5785 H   0  0  0  0  0  0  0  0  0  0  0  0
   -0.4718   -3.6533    0.2174 H   0  0  0  0  0  0  0  0  0  0  0  0
   -0.3700    1.1367    1.5958 H   0  0  0  0  0  0  0  0  0  0  0  0
   -2.1836    4.0109    0.7257 H   0  0  0  0  0  0  0  0  0  0  0  0
   -1.0296    2.3072    3.6680 H   0  0  0  0  0  0  0  0  0  0  0  0
    1.2602   -0.2803    0.8549 H   0  0  0  0  0  0  0  0  0  0  0  0
    2.4863    1.1567    2.0420 H   0  0  0  0  0  0  0  0  0  0  0  0
  1  2  1  0
  2  3  1  0
  3  4  1  0
  4  5  1  0
  4  6  1  0
  4  7  2  0
  1  8  1  0
  8  9  1  0
  9 10  1  0
 10 11  1  0
 11 12  2  0
 12 13  1  0
 13 14  2  0
 14 15  1  0
 14 16  1  0
 16 17  2  0
 17 18  1  0
 18 19  2  0
  9 20  1  0
 20 21  1  0
 21 22  1  0
 22 23  1  0
 22 24  1  0
 22 25  2  0
 20 26  1  0
 26 27  1  0
 26  1  1  0
 19 10  1  0
 19 13  1  0
  1 28  1  1
  2 29  1  0
  2 30  1  0
  5 31  1  0
  6 32  1  0
  9 33  1  6
 11 34  1  0
 15 35  1  0
 15 36  1  0
 17 37  1  0
 20 38  1  1
 23 39  1  0
 24 40  1  0
 26 41  1  1
 27 42  1  0
M  END
$$$$
