
     RDKit          3D

 43 43  0  0  0  0  0  0  0  0999 V2000
    2.1688    0.5617    0.7084 C   0  0  0  0  0  0  0  0  0  0  0  0
    1.4976   -0.4332    1.5608 C   0  0  0  0  0  0  0  0  0  0  0  0
    0.4373   -1.1826    1.1906 C   0  0  0  0  0  0  0  0  0  0  0  0
   -0.1210   -2.1254    2.2304 C   0  0  0  0  0  0  0  0  0  0  0  0
   -0.2621   -1.0022   -0.1673 C   0  0  1  0  0  0  0  0  0  0  0  0
   -0.6811   -2.3343   -0.7905 C   0  0  0  0  0  0  0  0  0  0  0  0
   -2.1052   -2.5499   -0.5116 N   0  0  0  0  0  0  0  0  0  0  0  0
   -2.6569   -1.2909    0.0162 C   0  0  2  0  0  0  0  0  0  0  0  0
   -3.9408   -0.9049   -0.6778 C   0  0  0  0  0  0  0  0  0  0  0  0
   -5.1262   -0.8430    0.0481 O   0  0  0  0  0  0  0  0  0  0  0  0
   -3.9482   -0.6480   -1.9123 O   0  0  0  0  0  0  0  0  0  0  0  0
   -1.5726   -0.2103   -0.1119 C   0  0  1  0  0  0  0  0  0  0  0  0
   -1.6278    0.8751    0.9883 C   0  0  0  0  0  0  0  0  0  0  0  0
   -2.8386    1.7440    0.8443 C   0  0  0  0  0  0  0  0  0  0  0  0
   -3.9336    1.5525    1.6809 O   0  0  0  0  0  0  0  0  0  0  0  0
   -2.8764    2.6312   -0.0498 O   0  0  0  0  0  0  0  0  0  0  0  0
    2.8381    0.2040   -0.3943 C   0  0  0  0  0  0  0  0  0  0  0  0
    3.5568    1.1985   -1.2699 C   0  0  1  0  0  0  0  0  0  0  0  0
    2.5869    2.2244   -1.8704 C   0  0  0  0  0  0  0  0  0  0  0  0
    4.6840    1.8588   -0.5232 C   0  0  0  0  0  0  0  0  0  0  0  0
    5.9752    1.3543   -0.6433 O   0  0  0  0  0  0  0  0  0  0  0  0
    4.4642    2.8385    0.2400 O   0  0  0  0  0  0  0  0  0  0  0  0
    2.1990    1.5866    1.0545 H   0  0  0  0  0  0  0  0  0  0  0  0
    1.8656   -0.5090    2.5776 H   0  0  0  0  0  0  0  0  0  0  0  0
    0.6548   -2.8681    2.5131 H   0  0  0  0  0  0  0  0  0  0  0  0
   -1.0056   -2.6832    1.8720 H   0  0  0  0  0  0  0  0  0  0  0  0
   -0.4207   -1.5559    3.1357 H   0  0  0  0  0  0  0  0  0  0  0  0
    0.4118   -0.4981   -0.8881 H   0  0  0  0  0  0  0  0  0  0  0  0
   -0.5149   -2.2909   -1.8922 H   0  0  0  0  0  0  0  0  0  0  0  0
   -0.0844   -3.1867   -0.4003 H   0  0  0  0  0  0  0  0  0  0  0  0
   -2.5784   -2.8382   -1.4010 H   0  0  0  0  0  0  0  0  0  0  0  0
   -2.8873   -1.4532    1.0917 H   0  0  0  0  0  0  0  0  0  0  0  0
   -5.9971   -0.5853   -0.4003 H   0  0  0  0  0  0  0  0  0  0  0  0
   -1.6766    0.2988   -1.0991 H   0  0  0  0  0  0  0  0  0  0  0  0
   -1.6331    0.4130    1.9983 H   0  0  0  0  0  0  0  0  0  0  0  0
   -0.7252    1.5194    0.9141 H   0  0  0  0  0  0  0  0  0  0  0  0
   -4.7659    2.1218    1.5854 H   0  0  0  0  0  0  0  0  0  0  0  0
    2.8618   -0.8401   -0.6863 H   0  0  0  0  0  0  0  0  0  0  0  0
    4.0013    0.6354   -2.1199 H   0  0  0  0  0  0  0  0  0  0  0  0
    3.1317    2.9010   -2.5630 H   0  0  0  0  0  0  0  0  0  0  0  0
    1.7920    1.7031   -2.4459 H   0  0  0  0  0  0  0  0  0  0  0  0
    2.1070    2.8377   -1.0781 H   0  0  0  0  0  0  0  0  0  0  0  0
    6.7460    1.7737   -0.1372 H   0  0  0  0  0  0  0  0  0  0  0  0
  1  2  1  0
  2  3  2  0
  3  4  1  0
  3  5  1  0
  5  6  1  0
  6  7  1  0
  7  8  1  0
  8  9  1  0
  9 10  1  0
  9 11  2  0
  8 12  1  0
 12 13  1  0
 13 14  1  0
 14 15  1  0
 14 16  2  0
  1 17  2  0
 17 18  1  0
 18 19  1  0
 18 20  1  0
 20 21  1  0
 20 22  2  0
 12  5  1  0
  1 23  1  0
  2 24  1  0
  4 25  1  0
  4 26  1  0
  4 27  1  0
  5 28  1  6
  6 29  1  0
  6 30  1  0
  7 31  1  0
  8 32  1  1
 10 33  1  0
 12 34  1  6
 13 35  1  0
 13 36  1  0
 15 37  1  0
 17 38  1  0
 18 39  1  6
 19 40  1  0
 19 41  1  0
 19 42  1  0
 21 43  1  0
M  END
$$$$
