
     RDKit          3D

 65 68  0  0  0  0  0  0  0  0999 V2000
    5.1959   -1.7213   -0.5424 C   0  0  0  0  0  0  0  0  0  0  0  0
    5.7788   -1.1089    0.6035 O   0  0  0  0  0  0  0  0  0  0  0  0
    5.7416    0.2682    0.8756 C   0  0  0  0  0  0  0  0  0  0  0  0
    5.1309    1.1868    0.0012 C   0  0  0  0  0  0  0  0  0  0  0  0
    5.0927    2.5611    0.3076 C   0  0  0  0  0  0  0  0  0  0  0  0
    4.4464    3.4953   -0.5817 N   0  0  0  0  0  0  0  0  0  0  0  0
    3.5223    3.0991   -1.6122 C   0  0  0  0  0  0  0  0  0  0  0  0
    3.8281    3.3713   -2.9590 C   0  0  0  0  0  0  0  0  0  0  0  0
    2.9547    2.9470   -3.9642 C   0  0  0  0  0  0  0  0  0  0  0  0
    1.8154    2.2826   -3.6456 N   0  0  0  0  0  0  0  0  0  0  0  0
    1.4728    2.0173   -2.3579 C   0  0  0  0  0  0  0  0  0  0  0  0
    0.2827    1.3365   -2.0878 C   0  0  0  0  0  0  0  0  0  0  0  0
   -0.1000    1.0663   -0.7616 C   0  0  0  0  0  0  0  0  0  0  0  0
   -1.2820    0.3755   -0.4532 O   0  0  0  0  0  0  0  0  0  0  0  0
   -2.1958   -0.1406   -1.4186 C   0  0  0  0  0  0  0  0  0  0  0  0
   -3.3561   -0.8434   -0.7137 C   0  0  0  0  0  0  0  0  0  0  0  0
   -2.8702   -2.0887    0.0616 C   0  0  0  0  0  0  0  0  0  0  0  0
   -3.9461   -2.8228    0.7630 N   0  0  0  0  0  0  0  0  0  0  0  0
   -5.0105   -3.3588   -0.1182 C   0  0  0  0  0  0  0  0  0  0  0  0
   -6.3433   -2.6121    0.0652 C   0  0  0  0  0  0  0  0  0  0  0  0
   -6.8182   -2.6302    1.4720 N   0  0  0  0  0  0  0  0  0  0  0  0
   -7.8514   -3.6571    1.6774 C   0  0  0  0  0  0  0  0  0  0  0  0
   -5.7347   -2.7783    2.4720 C   0  0  0  0  0  0  0  0  0  0  0  0
   -4.4315   -2.1403    1.9816 C   0  0  0  0  0  0  0  0  0  0  0  0
    0.7124    1.4961    0.2973 C   0  0  0  0  0  0  0  0  0  0  0  0
    0.2990    1.2122    1.6091 O   0  0  0  0  0  0  0  0  0  0  0  0
    1.0354    1.5512    2.7801 C   0  0  0  0  0  0  0  0  0  0  0  0
    1.9066    2.1903    0.0255 C   0  0  0  0  0  0  0  0  0  0  0  0
    2.3112    2.4342   -1.3001 C   0  0  0  0  0  0  0  0  0  0  0  0
    5.0479    4.0486   -3.3247 C   0  0  0  0  0  0  0  0  0  0  0  0
    6.0270    4.5917   -3.6174 N   0  0  0  0  0  0  0  0  0  0  0  0
    5.6944    3.0122    1.4991 C   0  0  0  0  0  0  0  0  0  0  0  0
    5.6626    4.7092    1.9633 Cl  0  0  0  0  0  0  0  0  0  0  0  0
    6.3079    2.1003    2.3629 C   0  0  0  0  0  0  0  0  0  0  0  0
    6.3312    0.7375    2.0569 C   0  0  0  0  0  0  0  0  0  0  0  0
    7.1034   -0.3791    3.1725 Cl  0  0  0  0  0  0  0  0  0  0  0  0
    5.3635   -2.8166   -0.4926 H   0  0  0  0  0  0  0  0  0  0  0  0
    4.1021   -1.5294   -0.5632 H   0  0  0  0  0  0  0  0  0  0  0  0
    5.6709   -1.3311   -1.4672 H   0  0  0  0  0  0  0  0  0  0  0  0
    4.6882    0.8367   -0.9200 H   0  0  0  0  0  0  0  0  0  0  0  0
    4.7511    4.4942   -0.5745 H   0  0  0  0  0  0  0  0  0  0  0  0
    3.1826    3.1364   -5.0058 H   0  0  0  0  0  0  0  0  0  0  0  0
   -0.3382    1.0230   -2.9166 H   0  0  0  0  0  0  0  0  0  0  0  0
   -1.6752   -0.8577   -2.0904 H   0  0  0  0  0  0  0  0  0  0  0  0
   -2.6011    0.6963   -2.0278 H   0  0  0  0  0  0  0  0  0  0  0  0
   -4.0958   -1.1360   -1.4871 H   0  0  0  0  0  0  0  0  0  0  0  0
   -3.8408   -0.1147   -0.0331 H   0  0  0  0  0  0  0  0  0  0  0  0
   -2.3704   -2.7846   -0.6473 H   0  0  0  0  0  0  0  0  0  0  0  0
   -2.0955   -1.7861    0.8005 H   0  0  0  0  0  0  0  0  0  0  0  0
   -4.7121   -3.3399   -1.1892 H   0  0  0  0  0  0  0  0  0  0  0  0
   -5.1689   -4.4283    0.1368 H   0  0  0  0  0  0  0  0  0  0  0  0
   -6.2059   -1.5539   -0.2419 H   0  0  0  0  0  0  0  0  0  0  0  0
   -7.0989   -3.0387   -0.6325 H   0  0  0  0  0  0  0  0  0  0  0  0
   -8.7370   -3.4369    1.0435 H   0  0  0  0  0  0  0  0  0  0  0  0
   -7.4637   -4.6686    1.4239 H   0  0  0  0  0  0  0  0  0  0  0  0
   -8.1944   -3.6526    2.7349 H   0  0  0  0  0  0  0  0  0  0  0  0
   -5.5344   -3.8513    2.6978 H   0  0  0  0  0  0  0  0  0  0  0  0
   -6.0456   -2.2826    3.4168 H   0  0  0  0  0  0  0  0  0  0  0  0
   -3.6631   -2.2305    2.7792 H   0  0  0  0  0  0  0  0  0  0  0  0
   -4.6162   -1.0609    1.8034 H   0  0  0  0  0  0  0  0  0  0  0  0
    1.1459    2.6536    2.8561 H   0  0  0  0  0  0  0  0  0  0  0  0
    2.0347    1.0667    2.7568 H   0  0  0  0  0  0  0  0  0  0  0  0
    0.4851    1.1878    3.6719 H   0  0  0  0  0  0  0  0  0  0  0  0
    2.5093    2.5454    0.8473 H   0  0  0  0  0  0  0  0  0  0  0  0
    6.7625    2.4514    3.2810 H   0  0  0  0  0  0  0  0  0  0  0  0
  1  2  1  0
  2  3  1  0
  3  4  2  0
  4  5  1  0
  5  6  1  0
  6  7  1  0
  7  8  2  0
  8  9  1  0
  9 10  2  0
 10 11  1  0
 11 12  2  0
 12 13  1  0
 13 14  1  0
 14 15  1  0
 15 16  1  0
 16 17  1  0
 17 18  1  0
 18 19  1  0
 19 20  1  0
 20 21  1  0
 21 22  1  0
 21 23  1  0
 23 24  1  0
 13 25  2  0
 25 26  1  0
 26 27  1  0
 25 28  1  0
 28 29  2  0
  8 30  1  0
 30 31  3  0
  5 32  2  0
 32 33  1  0
 32 34  1  0
 34 35  2  0
 35 36  1  0
 35  3  1  0
 29  7  1  0
 29 11  1  0
 24 18  1  0
  1 37  1  0
  1 38  1  0
  1 39  1  0
  4 40  1  0
  6 41  1  0
  9 42  1  0
 12 43  1  0
 15 44  1  0
 15 45  1  0
 16 46  1  0
 16 47  1  0
 17 48  1  0
 17 49  1  0
 19 50  1  0
 19 51  1  0
 20 52  1  0
 20 53  1  0
 22 54  1  0
 22 55  1  0
 22 56  1  0
 23 57  1  0
 23 58  1  0
 24 59  1  0
 24 60  1  0
 27 61  1  0
 27 62  1  0
 27 63  1  0
 28 64  1  0
 34 65  1  0
M  END
$$$$
