
     RDKit          3D

 49 51  0  0  0  0  0  0  0  0999 V2000
   -0.7909   -1.9481    0.3782 C   0  0  2  0  0  0  0  0  0  0  0  0
   -1.4278   -3.2181    0.9935 C   0  0  0  0  0  0  0  0  0  0  0  0
   -1.0544   -4.4397    0.2624 N   0  0  0  0  0  0  0  0  0  0  0  0
    0.2816   -4.9429    0.6021 C   0  0  0  0  0  0  0  0  0  0  0  0
    1.4091   -3.9596    0.2412 C   0  0  0  0  0  0  0  0  0  0  0  0
    1.5193   -2.8127    1.2574 C   0  0  0  0  0  0  0  0  0  0  0  0
    0.5982   -1.6031    0.9706 C   0  0  1  0  0  0  0  0  0  0  0  0
    1.2495   -0.6974    0.0767 O   0  0  0  0  0  0  0  0  0  0  0  0
    2.2503    0.2020    0.4659 C   0  0  0  0  0  0  0  0  0  0  0  0
    2.6375    0.2396    1.6665 O   0  0  0  0  0  0  0  0  0  0  0  0
    2.8429    1.1155   -0.5349 C   0  0  0  0  0  0  0  0  0  0  0  0
    3.8427    2.0347   -0.1667 C   0  0  0  0  0  0  0  0  0  0  0  0
    4.3941    2.8992   -1.1174 C   0  0  0  0  0  0  0  0  0  0  0  0
    3.9546    2.8571   -2.4466 C   0  0  0  0  0  0  0  0  0  0  0  0
    4.4965    3.7140   -3.4018 O   0  0  0  0  0  0  0  0  0  0  0  0
    2.9622    1.9463   -2.8197 C   0  0  0  0  0  0  0  0  0  0  0  0
    2.4087    1.0799   -1.8721 C   0  0  0  0  0  0  0  0  0  0  0  0
   -1.6891   -0.8054    0.5835 N   0  0  0  0  0  0  0  0  0  0  0  0
   -1.8390    0.2473   -0.3856 C   0  0  0  0  0  0  0  0  0  0  0  0
   -1.1694    0.2150   -1.4544 O   0  0  0  0  0  0  0  0  0  0  0  0
   -2.7547    1.3867   -0.1408 C   0  0  0  0  0  0  0  0  0  0  0  0
   -2.5303    2.6190   -0.7816 C   0  0  0  0  0  0  0  0  0  0  0  0
   -3.3884    3.7003   -0.5608 C   0  0  0  0  0  0  0  0  0  0  0  0
   -4.4871    3.5633    0.2965 C   0  0  0  0  0  0  0  0  0  0  0  0
   -5.3489    4.6338    0.5243 O   0  0  0  0  0  0  0  0  0  0  0  0
   -4.7241    2.3394    0.9284 C   0  0  0  0  0  0  0  0  0  0  0  0
   -3.8673    1.2558    0.7111 C   0  0  0  0  0  0  0  0  0  0  0  0
   -0.6767   -2.1136   -0.7157 H   0  0  0  0  0  0  0  0  0  0  0  0
   -1.1854   -3.3085    2.0756 H   0  0  0  0  0  0  0  0  0  0  0  0
   -2.5345   -3.1295    0.9336 H   0  0  0  0  0  0  0  0  0  0  0  0
   -1.1333   -4.2995   -0.7721 H   0  0  0  0  0  0  0  0  0  0  0  0
    0.3227   -5.2189    1.6787 H   0  0  0  0  0  0  0  0  0  0  0  0
    0.4492   -5.8837    0.0343 H   0  0  0  0  0  0  0  0  0  0  0  0
    2.3655   -4.5265    0.2618 H   0  0  0  0  0  0  0  0  0  0  0  0
    1.2868   -3.5717   -0.7931 H   0  0  0  0  0  0  0  0  0  0  0  0
    2.5744   -2.4640    1.2750 H   0  0  0  0  0  0  0  0  0  0  0  0
    1.3185   -3.1934    2.2829 H   0  0  0  0  0  0  0  0  0  0  0  0
    0.4278   -1.0852    1.9424 H   0  0  0  0  0  0  0  0  0  0  0  0
    4.1981    2.0871    0.8548 H   0  0  0  0  0  0  0  0  0  0  0  0
    5.1623    3.6014   -0.8196 H   0  0  0  0  0  0  0  0  0  0  0  0
    5.2171    4.3853   -3.1629 H   0  0  0  0  0  0  0  0  0  0  0  0
    2.6190    1.9095   -3.8458 H   0  0  0  0  0  0  0  0  0  0  0  0
    1.6421    0.3837   -2.1879 H   0  0  0  0  0  0  0  0  0  0  0  0
   -2.0709   -0.6612    1.5454 H   0  0  0  0  0  0  0  0  0  0  0  0
   -1.6838    2.7501   -1.4446 H   0  0  0  0  0  0  0  0  0  0  0  0
   -3.1981    4.6439   -1.0562 H   0  0  0  0  0  0  0  0  0  0  0  0
   -5.2047    5.5333    0.0804 H   0  0  0  0  0  0  0  0  0  0  0  0
   -5.5776    2.2256    1.5847 H   0  0  0  0  0  0  0  0  0  0  0  0
   -4.0940    0.3139    1.1924 H   0  0  0  0  0  0  0  0  0  0  0  0
  1  2  1  0
  2  3  1  0
  3  4  1  0
  4  5  1  0
  5  6  1  0
  6  7  1  0
  7  8  1  0
  8  9  1  0
  9 10  2  0
  9 11  1  0
 11 12  2  0
 12 13  1  0
 13 14  2  0
 14 15  1  0
 14 16  1  0
 16 17  2  0
  1 18  1  0
 18 19  1  0
 19 20  2  0
 19 21  1  0
 21 22  2  0
 22 23  1  0
 23 24  2  0
 24 25  1  0
 24 26  1  0
 26 27  2  0
  7  1  1  0
 17 11  1  0
 27 21  1  0
  1 28  1  6
  2 29  1  0
  2 30  1  0
  3 31  1  0
  4 32  1  0
  4 33  1  0
  5 34  1  0
  5 35  1  0
  6 36  1  0
  6 37  1  0
  7 38  1  1
 12 39  1  0
 13 40  1  0
 15 41  1  0
 16 42  1  0
 17 43  1  0
 18 44  1  0
 22 45  1  0
 23 46  1  0
 25 47  1  0
 26 48  1  0
 27 49  1  0
M  END
$$$$
