
     RDKit          3D

 31 31  0  0  0  0  0  0  0  0999 V2000
   -2.2464   -0.7574    0.1278 C   0  0  2  0  0  0  0  0  0  0  0  0
   -1.9794    0.2383    1.2770 C   0  0  0  0  0  0  0  0  0  0  0  0
   -3.0230    1.3101    1.3521 C   0  0  0  0  0  0  0  0  0  0  0  0
   -3.9811    1.2766    2.3605 O   0  0  0  0  0  0  0  0  0  0  0  0
   -3.0446    2.2316    0.4928 O   0  0  0  0  0  0  0  0  0  0  0  0
   -3.5198   -1.5952    0.3505 C   0  0  0  0  0  0  0  0  0  0  0  0
   -3.4834   -2.2353    1.5773 F   0  0  0  0  0  0  0  0  0  0  0  0
   -4.6467   -0.7957    0.2868 F   0  0  0  0  0  0  0  0  0  0  0  0
   -0.8287   -1.8409   -0.0817 S   0  0  0  0  0  6  0  0  0  0  0  0
   -1.0949   -2.8270   -1.1848 O   0  0  0  0  0  0  0  0  0  0  0  0
   -0.5772   -2.6014    1.1910 O   0  0  0  0  0  0  0  0  0  0  0  0
    0.5930   -0.8898   -0.5039 C   0  0  0  0  0  0  0  0  0  0  0  0
    1.5961   -0.6448    0.4434 C   0  0  0  0  0  0  0  0  0  0  0  0
    2.7118    0.1269    0.1045 C   0  0  0  0  0  0  0  0  0  0  0  0
    2.8344    0.6668   -1.1905 C   0  0  0  0  0  0  0  0  0  0  0  0
    3.9332    1.4471   -1.5798 O   0  0  0  0  0  0  0  0  0  0  0  0
    5.0270    1.7755   -0.7294 C   0  0  0  0  0  0  0  0  0  0  0  0
    1.8259    0.4218   -2.1301 C   0  0  0  0  0  0  0  0  0  0  0  0
    0.7109   -0.3494   -1.7902 C   0  0  0  0  0  0  0  0  0  0  0  0
   -2.3637   -0.1890   -0.8210 H   0  0  0  0  0  0  0  0  0  0  0  0
   -0.9979    0.7347    1.1214 H   0  0  0  0  0  0  0  0  0  0  0  0
   -1.9259   -0.2987    2.2485 H   0  0  0  0  0  0  0  0  0  0  0  0
   -4.6987    1.9891    2.4188 H   0  0  0  0  0  0  0  0  0  0  0  0
   -3.6092   -2.3630   -0.4465 H   0  0  0  0  0  0  0  0  0  0  0  0
    1.5146   -1.0442    1.4460 H   0  0  0  0  0  0  0  0  0  0  0  0
    3.4703    0.2994    0.8557 H   0  0  0  0  0  0  0  0  0  0  0  0
    4.6679    2.3527    0.1487 H   0  0  0  0  0  0  0  0  0  0  0  0
    5.7499    2.3998   -1.2934 H   0  0  0  0  0  0  0  0  0  0  0  0
    5.5416    0.8502   -0.3946 H   0  0  0  0  0  0  0  0  0  0  0  0
    1.9062    0.8335   -3.1282 H   0  0  0  0  0  0  0  0  0  0  0  0
   -0.0621   -0.5224   -2.5284 H   0  0  0  0  0  0  0  0  0  0  0  0
  1  2  1  0
  2  3  1  0
  3  4  1  0
  3  5  2  0
  1  6  1  0
  6  7  1  0
  6  8  1  0
  1  9  1  0
  9 10  2  0
  9 11  2  0
  9 12  1  0
 12 13  2  0
 13 14  1  0
 14 15  2  0
 15 16  1  0
 16 17  1  0
 15 18  1  0
 18 19  2  0
 19 12  1  0
  1 20  1  6
  2 21  1  0
  2 22  1  0
  4 23  1  0
  6 24  1  0
 13 25  1  0
 14 26  1  0
 17 27  1  0
 17 28  1  0
 17 29  1  0
 18 30  1  0
 19 31  1  0
M  END
$$$$
