
     RDKit          3D

 74 77  0  0  0  0  0  0  0  0999 V2000
   -7.8147    3.6702   -1.6342 C   0  0  0  0  0  0  0  0  0  0  0  0
   -7.3033    2.5268   -0.7727 C   0  0  0  0  0  0  0  0  0  0  0  0
   -7.7370    1.2858   -1.3195 O   0  0  0  0  0  0  0  0  0  0  0  0
   -7.4118    0.0546   -0.7441 C   0  0  0  0  0  0  0  0  0  0  0  0
   -6.7305    0.0076    0.3173 O   0  0  0  0  0  0  0  0  0  0  0  0
   -7.8846   -1.1508   -1.3592 N   0  0  0  0  0  0  0  0  0  0  0  0
   -7.5096   -2.4676   -0.9186 C   0  0  0  0  0  0  0  0  0  0  0  0
   -8.3922   -3.4164   -0.9310 N   0  0  0  0  0  0  0  0  0  0  0  0
   -6.1183   -2.7781   -0.5086 C   0  0  0  0  0  0  0  0  0  0  0  0
   -5.8626   -3.7744    0.4488 C   0  0  0  0  0  0  0  0  0  0  0  0
   -4.5512   -4.0649    0.8353 C   0  0  0  0  0  0  0  0  0  0  0  0
   -3.4728   -3.3736    0.2730 C   0  0  0  0  0  0  0  0  0  0  0  0
   -2.1774   -3.6922    0.7122 O   0  0  0  0  0  0  0  0  0  0  0  0
   -0.9895   -2.9828    0.3582 C   0  0  0  0  0  0  0  0  0  0  0  0
   -0.9838   -1.6107    0.9789 C   0  0  0  0  0  0  0  0  0  0  0  0
   -1.1449   -1.4680    2.3655 C   0  0  0  0  0  0  0  0  0  0  0  0
   -1.1496   -0.1980    2.9469 C   0  0  0  0  0  0  0  0  0  0  0  0
   -0.9843    0.9387    2.1520 C   0  0  0  0  0  0  0  0  0  0  0  0
   -0.7990    0.8116    0.7665 C   0  0  0  0  0  0  0  0  0  0  0  0
   -0.6276    2.0339   -0.0969 C   0  0  0  0  0  0  0  0  0  0  0  0
    0.5023    1.8933   -0.9592 O   0  0  0  0  0  0  0  0  0  0  0  0
    1.8427    1.8680   -0.5412 C   0  0  0  0  0  0  0  0  0  0  0  0
    2.2285    2.1133    0.7877 C   0  0  0  0  0  0  0  0  0  0  0  0
    3.5758    2.0618    1.1563 C   0  0  0  0  0  0  0  0  0  0  0  0
    4.5750    1.7521    0.2066 C   0  0  0  0  0  0  0  0  0  0  0  0
    4.1732    1.5370   -1.1287 C   0  0  0  0  0  0  0  0  0  0  0  0
    2.8262    1.5898   -1.4924 C   0  0  0  0  0  0  0  0  0  0  0  0
    6.0752    1.7009    0.5560 C   0  0  0  0  0  0  0  0  0  0  0  0
    6.7211    2.9752   -0.0400 C   0  0  0  0  0  0  0  0  0  0  0  0
    6.3447    1.7130    2.0802 C   0  0  0  0  0  0  0  0  0  0  0  0
    6.6857    0.3984    0.0030 C   0  0  0  0  0  0  0  0  0  0  0  0
    7.8941    0.3684   -0.7310 C   0  0  0  0  0  0  0  0  0  0  0  0
    8.4223   -0.8424   -1.1889 C   0  0  0  0  0  0  0  0  0  0  0  0
    7.7683   -2.0479   -0.9138 C   0  0  0  0  0  0  0  0  0  0  0  0
    8.2874   -3.2584   -1.3675 O   0  0  0  0  0  0  0  0  0  0  0  0
    6.5853   -2.0386   -0.1739 C   0  0  0  0  0  0  0  0  0  0  0  0
    6.0527   -0.8322    0.2866 C   0  0  0  0  0  0  0  0  0  0  0  0
   -0.8063   -0.4663    0.1842 C   0  0  0  0  0  0  0  0  0  0  0  0
   -3.7234   -2.3938   -0.7056 C   0  0  0  0  0  0  0  0  0  0  0  0
   -5.0340   -2.1021   -1.0928 C   0  0  0  0  0  0  0  0  0  0  0  0
   -8.9248    3.6556   -1.6640 H   0  0  0  0  0  0  0  0  0  0  0  0
   -7.4204    3.5720   -2.6678 H   0  0  0  0  0  0  0  0  0  0  0  0
   -7.4776    4.6393   -1.2099 H   0  0  0  0  0  0  0  0  0  0  0  0
   -7.6978    2.6404    0.2604 H   0  0  0  0  0  0  0  0  0  0  0  0
   -6.1923    2.5569   -0.7446 H   0  0  0  0  0  0  0  0  0  0  0  0
   -8.6331   -1.0619   -2.0828 H   0  0  0  0  0  0  0  0  0  0  0  0
   -9.3778   -3.2442   -1.2310 H   0  0  0  0  0  0  0  0  0  0  0  0
   -6.6782   -4.3174    0.9103 H   0  0  0  0  0  0  0  0  0  0  0  0
   -4.3719   -4.8262    1.5840 H   0  0  0  0  0  0  0  0  0  0  0  0
   -0.1150   -3.5459    0.7463 H   0  0  0  0  0  0  0  0  0  0  0  0
   -0.8855   -2.9429   -0.7476 H   0  0  0  0  0  0  0  0  0  0  0  0
   -1.2743   -2.3404    2.9941 H   0  0  0  0  0  0  0  0  0  0  0  0
   -1.2833   -0.0943    4.0159 H   0  0  0  0  0  0  0  0  0  0  0  0
   -0.9943    1.9158    2.6186 H   0  0  0  0  0  0  0  0  0  0  0  0
   -1.5364    2.1484   -0.7238 H   0  0  0  0  0  0  0  0  0  0  0  0
   -0.5279    2.9611    0.5082 H   0  0  0  0  0  0  0  0  0  0  0  0
    1.4972    2.3517    1.5464 H   0  0  0  0  0  0  0  0  0  0  0  0
    3.8165    2.2659    2.1889 H   0  0  0  0  0  0  0  0  0  0  0  0
    4.9080    1.3212   -1.8943 H   0  0  0  0  0  0  0  0  0  0  0  0
    2.5443    1.4087   -2.5220 H   0  0  0  0  0  0  0  0  0  0  0  0
    7.7810    3.0775    0.2784 H   0  0  0  0  0  0  0  0  0  0  0  0
    6.6797    2.9625   -1.1504 H   0  0  0  0  0  0  0  0  0  0  0  0
    6.1821    3.8822    0.3112 H   0  0  0  0  0  0  0  0  0  0  0  0
    6.0427    2.6808    2.5358 H   0  0  0  0  0  0  0  0  0  0  0  0
    7.4298    1.5774    2.2821 H   0  0  0  0  0  0  0  0  0  0  0  0
    5.7980    0.8902    2.5892 H   0  0  0  0  0  0  0  0  0  0  0  0
    8.4432    1.2693   -0.9606 H   0  0  0  0  0  0  0  0  0  0  0  0
    9.3447   -0.8420   -1.7557 H   0  0  0  0  0  0  0  0  0  0  0  0
    9.1448   -3.2982   -1.9061 H   0  0  0  0  0  0  0  0  0  0  0  0
    6.0784   -2.9690    0.0487 H   0  0  0  0  0  0  0  0  0  0  0  0
    5.1385   -0.8579    0.8667 H   0  0  0  0  0  0  0  0  0  0  0  0
   -0.6755   -0.5671   -0.8867 H   0  0  0  0  0  0  0  0  0  0  0  0
   -2.9160   -1.8566   -1.1806 H   0  0  0  0  0  0  0  0  0  0  0  0
   -5.1989   -1.3540   -1.8581 H   0  0  0  0  0  0  0  0  0  0  0  0
  1  2  1  0
  2  3  1  0
  3  4  1  0
  4  5  2  0
  4  6  1  0
  6  7  1  0
  7  8  2  3
  7  9  1  0
  9 10  2  0
 10 11  1  0
 11 12  2  0
 12 13  1  0
 13 14  1  0
 14 15  1  0
 15 16  2  0
 16 17  1  0
 17 18  2  0
 18 19  1  0
 19 20  1  0
 20 21  1  0
 21 22  1  0
 22 23  2  0
 23 24  1  0
 24 25  2  0
 25 26  1  0
 26 27  2  0
 25 28  1  0
 28 29  1  0
 28 30  1  0
 28 31  1  0
 31 32  2  0
 32 33  1  0
 33 34  2  0
 34 35  1  0
 34 36  1  0
 36 37  2  0
 19 38  2  0
 12 39  1  0
 39 40  2  0
 40  9  1  0
 38 15  1  0
 27 22  1  0
 37 31  1  0
  1 41  1  0
  1 42  1  0
  1 43  1  0
  2 44  1  0
  2 45  1  0
  6 46  1  0
  8 47  1  0
 10 48  1  0
 11 49  1  0
 14 50  1  0
 14 51  1  0
 16 52  1  0
 17 53  1  0
 18 54  1  0
 20 55  1  0
 20 56  1  0
 23 57  1  0
 24 58  1  0
 26 59  1  0
 27 60  1  0
 29 61  1  0
 29 62  1  0
 29 63  1  0
 30 64  1  0
 30 65  1  0
 30 66  1  0
 32 67  1  0
 33 68  1  0
 35 69  1  0
 36 70  1  0
 37 71  1  0
 38 72  1  0
 39 73  1  0
 40 74  1  0
M  END
$$$$
