
     RDKit          3D

 29 28  0  0  0  0  0  0  0  0999 V2000
    3.8641    1.7446   -0.4988 N   0  0  0  0  0  0  0  0  0  0  0  0
    3.0707    0.7600    0.2377 C   0  0  1  0  0  0  0  0  0  0  0  0
    1.6469    0.6907   -0.3490 C   0  0  0  0  0  0  0  0  0  0  0  0
    0.7151   -0.2017    0.4859 C   0  0  0  0  0  0  0  0  0  0  0  0
   -0.7064   -0.2019   -0.0885 C   0  0  0  0  0  0  0  0  0  0  0  0
   -1.6353   -1.0948    0.7405 C   0  0  0  0  0  0  0  0  0  0  0  0
   -2.9792   -1.1106    0.1637 N   0  0  0  0  0  0  0  0  0  0  0  0
   -3.9066   -0.0242    0.3054 C   0  0  0  0  0  0  0  0  0  0  0  0
   -5.1931   -0.1084   -0.3125 N   0  0  0  0  0  0  0  0  0  0  0  0
   -3.5870    1.0245    0.9969 N   0  0  0  0  0  0  0  0  0  0  0  0
    3.7455   -0.5820    0.1584 C   0  0  0  0  0  0  0  0  0  0  0  0
    4.0709   -1.1265   -1.0807 O   0  0  0  0  0  0  0  0  0  0  0  0
    4.0052   -1.2213    1.2130 O   0  0  0  0  0  0  0  0  0  0  0  0
    4.8113    1.8015   -0.0573 H   0  0  0  0  0  0  0  0  0  0  0  0
    3.4302    2.6870   -0.3638 H   0  0  0  0  0  0  0  0  0  0  0  0
    3.0060    1.0778    1.3043 H   0  0  0  0  0  0  0  0  0  0  0  0
    1.2204    1.7179   -0.3755 H   0  0  0  0  0  0  0  0  0  0  0  0
    1.6891    0.3151   -1.3956 H   0  0  0  0  0  0  0  0  0  0  0  0
    0.6876    0.1727    1.5330 H   0  0  0  0  0  0  0  0  0  0  0  0
    1.1037   -1.2433    0.4931 H   0  0  0  0  0  0  0  0  0  0  0  0
   -1.0992    0.8377   -0.0967 H   0  0  0  0  0  0  0  0  0  0  0  0
   -0.6829   -0.5765   -1.1355 H   0  0  0  0  0  0  0  0  0  0  0  0
   -1.6807   -0.7414    1.7938 H   0  0  0  0  0  0  0  0  0  0  0  0
   -1.2333   -2.1317    0.7461 H   0  0  0  0  0  0  0  0  0  0  0  0
   -3.2937   -1.9756   -0.3309 H   0  0  0  0  0  0  0  0  0  0  0  0
   -5.8854    0.6679   -0.2191 H   0  0  0  0  0  0  0  0  0  0  0  0
   -5.4574   -0.9508   -0.8697 H   0  0  0  0  0  0  0  0  0  0  0  0
   -4.2461    1.8257    1.1171 H   0  0  0  0  0  0  0  0  0  0  0  0
    4.5193   -2.0323   -1.1484 H   0  0  0  0  0  0  0  0  0  0  0  0
  1  2  1  0
  2  3  1  0
  3  4  1  0
  4  5  1  0
  5  6  1  0
  6  7  1  0
  7  8  1  0
  8  9  1  0
  8 10  2  3
  2 11  1  0
 11 12  1  0
 11 13  2  0
  1 14  1  0
  1 15  1  0
  2 16  1  1
  3 17  1  0
  3 18  1  0
  4 19  1  0
  4 20  1  0
  5 21  1  0
  5 22  1  0
  6 23  1  0
  6 24  1  0
  7 25  1  0
  9 26  1  0
  9 27  1  0
 10 28  1  0
 12 29  1  0
M  END
$$$$
