
     RDKit          3D

 30 31  0  0  0  0  0  0  0  0999 V2000
    0.0109    2.8349   -0.3851 C   0  0  0  0  0  0  0  0  0  0  0  0
   -0.9094    1.7587   -0.9805 C   0  0  0  0  0  0  0  0  0  0  0  0
   -0.8337    0.3619   -0.2784 C   0  0  0  0  0  0  0  0  0  0  0  0
   -1.5503   -0.6892   -1.1266 C   0  0  0  0  0  0  0  0  0  0  0  0
   -1.7000   -0.5336   -2.3695 O   0  0  0  0  0  0  0  0  0  0  0  0
   -2.0300   -1.8938   -0.5150 N   0  0  0  0  0  0  0  0  0  0  0  0
   -1.8601   -2.1107    0.9166 C   0  0  0  0  0  0  0  0  0  0  0  0
   -2.0507   -0.8514    1.6260 N   0  0  0  0  0  0  0  0  0  0  0  0
   -1.5787    0.3780    1.0592 C   0  0  0  0  0  0  0  0  0  0  0  0
   -1.7738    1.4527    1.6880 O   0  0  0  0  0  0  0  0  0  0  0  0
    0.6344   -0.0659   -0.1107 C   0  0  0  0  0  0  0  0  0  0  0  0
    1.3952   -0.4256   -1.2455 C   0  0  0  0  0  0  0  0  0  0  0  0
    2.7415   -0.7797   -1.1241 C   0  0  0  0  0  0  0  0  0  0  0  0
    3.3604   -0.7638    0.1254 C   0  0  0  0  0  0  0  0  0  0  0  0
    2.6371   -0.3834    1.2556 C   0  0  0  0  0  0  0  0  0  0  0  0
    1.2901   -0.0274    1.1424 C   0  0  0  0  0  0  0  0  0  0  0  0
   -0.1839    3.8033   -0.8923 H   0  0  0  0  0  0  0  0  0  0  0  0
    1.0768    2.5729   -0.5519 H   0  0  0  0  0  0  0  0  0  0  0  0
   -0.1584    2.9755    0.6998 H   0  0  0  0  0  0  0  0  0  0  0  0
   -1.9581    2.1297   -0.9604 H   0  0  0  0  0  0  0  0  0  0  0  0
   -0.6236    1.6628   -2.0507 H   0  0  0  0  0  0  0  0  0  0  0  0
   -2.5173   -2.6147   -1.0932 H   0  0  0  0  0  0  0  0  0  0  0  0
   -2.5891   -2.8672    1.2779 H   0  0  0  0  0  0  0  0  0  0  0  0
   -0.8313   -2.4828    1.1078 H   0  0  0  0  0  0  0  0  0  0  0  0
   -2.5561   -0.8445    2.5404 H   0  0  0  0  0  0  0  0  0  0  0  0
    0.9497   -0.4263   -2.2313 H   0  0  0  0  0  0  0  0  0  0  0  0
    3.3076   -1.0602   -2.0030 H   0  0  0  0  0  0  0  0  0  0  0  0
    4.4039   -1.0362    0.2165 H   0  0  0  0  0  0  0  0  0  0  0  0
    3.1230   -0.3569    2.2224 H   0  0  0  0  0  0  0  0  0  0  0  0
    0.7737    0.2828    2.0402 H   0  0  0  0  0  0  0  0  0  0  0  0
  1  2  1  0
  2  3  1  0
  3  4  1  0
  4  5  2  0
  4  6  1  0
  6  7  1  0
  7  8  1  0
  8  9  1  0
  9 10  2  0
  3 11  1  0
 11 12  2  0
 12 13  1  0
 13 14  2  0
 14 15  1  0
 15 16  2  0
  9  3  1  0
 16 11  1  0
  1 17  1  0
  1 18  1  0
  1 19  1  0
  2 20  1  0
  2 21  1  0
  6 22  1  0
  7 23  1  0
  7 24  1  0
  8 25  1  0
 12 26  1  0
 13 27  1  0
 14 28  1  0
 15 29  1  0
 16 30  1  0
M  END
$$$$
