
     RDKit          3D

 61 64  0  0  0  0  0  0  0  0999 V2000
   -0.2464    0.0084    0.8766 C   0  0  2  0  0  0  0  0  0  0  0  0
   -1.0939   -0.5381    2.0151 C   0  0  0  0  0  0  0  0  0  0  0  0
   -2.5612   -0.3052    1.5756 C   0  0  1  0  0  0  0  0  0  0  0  0
   -3.3250    0.5370    2.6163 C   0  0  0  0  0  0  0  0  0  0  0  0
   -2.5271    0.2704    0.0999 C   0  0  2  0  0  0  0  0  0  0  0  0
   -2.6799    1.8211    0.0815 C   0  0  0  0  0  0  0  0  0  0  0  0
   -3.6561   -0.2542   -0.8078 C   0  0  0  0  0  0  0  0  0  0  0  0
   -3.5196   -0.1533   -2.0194 O   0  0  0  0  0  0  0  0  0  0  0  0
   -4.9690   -0.8163   -0.3040 C   0  0  0  0  0  0  0  0  0  0  0  0
   -6.1416    0.0449   -0.7656 C   0  0  0  0  0  0  0  0  0  0  0  0
   -1.0956   -0.2076   -0.3872 C   0  0  2  0  0  0  0  0  0  0  0  0
   -1.1712   -1.7233   -0.7995 C   0  0  0  0  0  0  0  0  0  0  0  0
   -0.4324    0.6118   -1.5329 C   0  0  0  0  0  0  0  0  0  0  0  0
    1.0589    0.2378   -1.7629 C   0  0  2  0  0  0  0  0  0  0  0  0
    1.1597   -1.0108   -2.3931 O   0  0  0  0  0  0  0  0  0  0  0  0
    1.9033    0.2831   -0.4399 C   0  0  1  0  0  0  0  0  0  0  0  0
    1.2171   -0.4837    0.7478 C   0  0  1  0  0  0  0  0  0  0  0  0
    1.9802   -0.2289    2.0673 C   0  0  0  0  0  0  0  0  0  0  0  0
    3.4483   -0.6318    1.9548 C   0  0  0  0  0  0  0  0  0  0  0  0
    4.0832    0.0874    0.7925 C   0  0  0  0  0  0  0  0  0  0  0  0
    5.1836    0.8293    0.9974 C   0  0  0  0  0  0  0  0  0  0  0  0
    5.7871    1.5941   -0.0926 C   0  0  0  0  0  0  0  0  0  0  0  0
    6.8309    2.2690    0.1082 O   0  0  0  0  0  0  0  0  0  0  0  0
    5.1611    1.5838   -1.4115 C   0  0  0  0  0  0  0  0  0  0  0  0
    4.0723    0.8487   -1.6396 C   0  0  0  0  0  0  0  0  0  0  0  0
    3.4362   -0.0698   -0.5939 C   0  0  2  0  0  0  0  0  0  0  0  0
    3.6888   -1.5221   -1.0664 C   0  0  0  0  0  0  0  0  0  0  0  0
   -0.1650    1.1023    1.0674 H   0  0  0  0  0  0  0  0  0  0  0  0
   -0.8968   -1.6252    2.1488 H   0  0  0  0  0  0  0  0  0  0  0  0
   -0.8443   -0.0202    2.9679 H   0  0  0  0  0  0  0  0  0  0  0  0
   -3.0320   -1.3115    1.5706 H   0  0  0  0  0  0  0  0  0  0  0  0
   -3.3843   -0.0204    3.5753 H   0  0  0  0  0  0  0  0  0  0  0  0
   -4.3604    0.7460    2.2790 H   0  0  0  0  0  0  0  0  0  0  0  0
   -2.8072    1.4999    2.8104 H   0  0  0  0  0  0  0  0  0  0  0  0
   -1.9256    2.3369    0.7069 H   0  0  0  0  0  0  0  0  0  0  0  0
   -2.6118    2.2183   -0.9532 H   0  0  0  0  0  0  0  0  0  0  0  0
   -3.6832    2.1194    0.4523 H   0  0  0  0  0  0  0  0  0  0  0  0
   -5.0931   -1.8456   -0.7032 H   0  0  0  0  0  0  0  0  0  0  0  0
   -5.0207   -0.8824    0.7965 H   0  0  0  0  0  0  0  0  0  0  0  0
   -7.0911   -0.3794   -0.3763 H   0  0  0  0  0  0  0  0  0  0  0  0
   -6.1957    0.0691   -1.8749 H   0  0  0  0  0  0  0  0  0  0  0  0
   -6.0309    1.0811   -0.3803 H   0  0  0  0  0  0  0  0  0  0  0  0
   -0.1936   -2.2286   -0.8533 H   0  0  0  0  0  0  0  0  0  0  0  0
   -1.7816   -2.3199   -0.0923 H   0  0  0  0  0  0  0  0  0  0  0  0
   -1.6278   -1.8327   -1.8047 H   0  0  0  0  0  0  0  0  0  0  0  0
   -1.0013    0.4836   -2.4784 H   0  0  0  0  0  0  0  0  0  0  0  0
   -0.4472    1.6953   -1.2923 H   0  0  0  0  0  0  0  0  0  0  0  0
    1.4624    1.0153   -2.4504 H   0  0  0  0  0  0  0  0  0  0  0  0
    0.8678   -0.8871   -3.3341 H   0  0  0  0  0  0  0  0  0  0  0  0
    1.8893    1.3595   -0.1446 H   0  0  0  0  0  0  0  0  0  0  0  0
    1.2367   -1.5754    0.5750 H   0  0  0  0  0  0  0  0  0  0  0  0
    1.9180    0.8470    2.3457 H   0  0  0  0  0  0  0  0  0  0  0  0
    1.5222   -0.8207    2.8889 H   0  0  0  0  0  0  0  0  0  0  0  0
    3.5285   -1.7293    1.8041 H   0  0  0  0  0  0  0  0  0  0  0  0
    3.9558   -0.3940    2.9157 H   0  0  0  0  0  0  0  0  0  0  0  0
    5.6275    0.8985    1.9836 H   0  0  0  0  0  0  0  0  0  0  0  0
    5.5894    2.1732   -2.2130 H   0  0  0  0  0  0  0  0  0  0  0  0
    3.6845    0.8407   -2.6500 H   0  0  0  0  0  0  0  0  0  0  0  0
    3.4715   -1.6507   -2.1466 H   0  0  0  0  0  0  0  0  0  0  0  0
    3.0877   -2.2595   -0.4994 H   0  0  0  0  0  0  0  0  0  0  0  0
    4.7608   -1.7850   -0.9312 H   0  0  0  0  0  0  0  0  0  0  0  0
  1  2  1  0
  2  3  1  0
  3  4  1  0
  3  5  1  0
  5  6  1  1
  5  7  1  0
  7  8  2  0
  7  9  1  0
  9 10  1  0
  5 11  1  0
 11 12  1  6
 11 13  1  0
 13 14  1  0
 14 15  1  0
 14 16  1  0
 16 17  1  0
 17 18  1  0
 18 19  1  0
 19 20  1  0
 20 21  2  0
 21 22  1  0
 22 23  2  0
 22 24  1  0
 24 25  2  0
 25 26  1  0
 26 27  1  6
 11  1  1  0
 26 16  1  0
 17  1  1  0
 26 20  1  0
  1 28  1  1
  2 29  1  0
  2 30  1  0
  3 31  1  6
  4 32  1  0
  4 33  1  0
  4 34  1  0
  6 35  1  0
  6 36  1  0
  6 37  1  0
  9 38  1  0
  9 39  1  0
 10 40  1  0
 10 41  1  0
 10 42  1  0
 12 43  1  0
 12 44  1  0
 12 45  1  0
 13 46  1  0
 13 47  1  0
 14 48  1  6
 15 49  1  0
 16 50  1  1
 17 51  1  6
 18 52  1  0
 18 53  1  0
 19 54  1  0
 19 55  1  0
 21 56  1  0
 24 57  1  0
 25 58  1  0
 27 59  1  0
 27 60  1  0
 27 61  1  0
M  END
$$$$
