
     RDKit          3D

 85 91  0  0  0  0  0  0  0  0999 V2000
   -3.6131   -0.5853   -2.2684 C   0  0  2  0  0  0  0  0  0  0  0  0
   -3.0758   -0.5314   -3.7020 C   0  0  0  0  0  0  0  0  0  0  0  0
   -3.5811    0.7854   -4.2936 C   0  0  0  0  0  0  0  0  0  0  0  0
   -4.7258    1.2473   -3.3978 C   0  0  0  0  0  0  0  0  0  0  0  0
   -4.5947    0.4795   -2.1741 N   0  0  0  0  0  0  0  0  0  0  0  0
   -5.1278    0.9111   -0.9114 C   0  0  0  0  0  0  0  0  0  0  0  0
   -6.1627    1.6295   -0.8852 O   0  0  0  0  0  0  0  0  0  0  0  0
   -4.4391    0.5216    0.3853 C   0  0  2  0  0  0  0  0  0  0  0  0
   -4.0025    1.7771    1.1925 C   0  0  0  0  0  0  0  0  0  0  0  0
   -4.8539    2.0949    2.4469 C   0  0  0  0  0  0  0  0  0  0  0  0
   -6.3286    2.3537    2.1172 C   0  0  0  0  0  0  0  0  0  0  0  0
   -4.7122    1.0245    3.5381 C   0  0  0  0  0  0  0  0  0  0  0  0
   -3.2607   -0.3101    0.0974 N   0  0  0  0  0  0  0  0  0  0  0  0
   -2.6548   -1.2377    0.9462 C   0  0  0  0  0  0  0  0  0  0  0  0
   -2.9661   -1.3862    2.1577 O   0  0  0  0  0  0  0  0  0  0  0  0
   -1.5610   -1.9410    0.2316 C   0  0  2  0  0  0  0  0  0  0  0  0
   -0.2635   -1.5160    0.7791 N   0  0  0  0  0  0  0  0  0  0  0  0
    0.9821   -1.7105    0.0894 C   0  0  0  0  0  0  0  0  0  0  0  0
    1.0014   -2.2581   -1.0474 O   0  0  0  0  0  0  0  0  0  0  0  0
    2.2641   -1.1942    0.6919 C   0  0  1  0  0  0  0  0  0  0  0  0
    3.3964   -2.2263    0.5689 C   0  0  0  0  0  0  0  0  0  0  0  0
    4.6445   -1.7160    1.1794 N   0  0  0  0  0  0  0  0  0  0  0  0
    5.6618   -2.7851    1.1330 C   0  0  0  0  0  0  0  0  0  0  0  0
    5.0948   -0.4862    0.4697 C   0  0  2  0  0  0  0  0  0  0  0  0
    6.4843    0.0229    0.9895 C   0  0  0  0  0  0  0  0  0  0  0  0
    6.7844    1.3638    0.3961 C   0  0  0  0  0  0  0  0  0  0  0  0
    7.9718    2.0746    0.2513 C   0  0  0  0  0  0  0  0  0  0  0  0
    7.7128    3.2995   -0.2817 N   0  0  0  0  0  0  0  0  0  0  0  0
    6.3765    3.3532   -0.4513 C   0  0  0  0  0  0  0  0  0  0  0  0
    5.5912    4.4074   -0.9139 C   0  0  0  0  0  0  0  0  0  0  0  0
    4.1902    4.2199   -0.9239 C   0  0  0  0  0  0  0  0  0  0  0  0
    3.6172    3.0016   -0.4715 C   0  0  0  0  0  0  0  0  0  0  0  0
    4.4509    1.9421   -0.0368 C   0  0  0  0  0  0  0  0  0  0  0  0
    5.8076    2.1924   -0.0409 C   0  0  0  0  0  0  0  0  0  0  0  0
    3.9927    0.6341    0.6023 C   0  0  1  0  0  0  0  0  0  0  0  0
    2.6635    0.1258    0.0215 C   0  0  0  0  0  0  0  0  0  0  0  0
   -1.6616   -1.4971   -1.1194 O   0  0  0  0  0  0  0  0  0  0  0  0
   -2.5581   -0.3849   -1.1696 C   0  0  1  0  0  0  0  0  0  0  0  0
   -1.8456    0.8140   -1.3634 O   0  0  0  0  0  0  0  0  0  0  0  0
   -1.6980   -3.4951    0.2775 C   0  0  0  0  0  0  0  0  0  0  0  0
   -3.0320   -3.9840   -0.3105 C   0  0  0  0  0  0  0  0  0  0  0  0
   -1.4931   -4.0808    1.6854 C   0  0  0  0  0  0  0  0  0  0  0  0
   -4.1267   -1.5582   -2.1030 H   0  0  0  0  0  0  0  0  0  0  0  0
   -1.9684   -0.6030   -3.7563 H   0  0  0  0  0  0  0  0  0  0  0  0
   -3.5027   -1.3774   -4.2846 H   0  0  0  0  0  0  0  0  0  0  0  0
   -3.9198    0.6533   -5.3440 H   0  0  0  0  0  0  0  0  0  0  0  0
   -2.7622    1.5377   -4.2682 H   0  0  0  0  0  0  0  0  0  0  0  0
   -4.6364    2.3358   -3.1887 H   0  0  0  0  0  0  0  0  0  0  0  0
   -5.7094    1.0315   -3.8676 H   0  0  0  0  0  0  0  0  0  0  0  0
   -5.1605   -0.0960    0.9583 H   0  0  0  0  0  0  0  0  0  0  0  0
   -3.9917    2.6740    0.5334 H   0  0  0  0  0  0  0  0  0  0  0  0
   -2.9477    1.6591    1.5273 H   0  0  0  0  0  0  0  0  0  0  0  0
   -4.4493    3.0401    2.8732 H   0  0  0  0  0  0  0  0  0  0  0  0
   -6.4143    3.1470    1.3448 H   0  0  0  0  0  0  0  0  0  0  0  0
   -6.8635    2.7028    3.0261 H   0  0  0  0  0  0  0  0  0  0  0  0
   -6.8270    1.4309    1.7535 H   0  0  0  0  0  0  0  0  0  0  0  0
   -5.1803    0.0664    3.2324 H   0  0  0  0  0  0  0  0  0  0  0  0
   -5.2077    1.3692    4.4707 H   0  0  0  0  0  0  0  0  0  0  0  0
   -3.6397    0.8478    3.7665 H   0  0  0  0  0  0  0  0  0  0  0  0
   -0.2370   -1.0410    1.7107 H   0  0  0  0  0  0  0  0  0  0  0  0
    2.0986   -1.0040    1.7762 H   0  0  0  0  0  0  0  0  0  0  0  0
    3.5658   -2.4879   -0.5019 H   0  0  0  0  0  0  0  0  0  0  0  0
    3.0675   -3.1492    1.0983 H   0  0  0  0  0  0  0  0  0  0  0  0
    5.2502   -3.7433    1.5187 H   0  0  0  0  0  0  0  0  0  0  0  0
    6.5112   -2.5358    1.8017 H   0  0  0  0  0  0  0  0  0  0  0  0
    6.0324   -2.9466    0.0963 H   0  0  0  0  0  0  0  0  0  0  0  0
    5.2221   -0.7125   -0.6163 H   0  0  0  0  0  0  0  0  0  0  0  0
    7.2953   -0.6731    0.6893 H   0  0  0  0  0  0  0  0  0  0  0  0
    6.4657    0.1125    2.0967 H   0  0  0  0  0  0  0  0  0  0  0  0
    8.9580    1.7275    0.5298 H   0  0  0  0  0  0  0  0  0  0  0  0
    8.4063    4.0517   -0.4899 H   0  0  0  0  0  0  0  0  0  0  0  0
    6.0349    5.3406   -1.2353 H   0  0  0  0  0  0  0  0  0  0  0  0
    3.5463    5.0221   -1.2599 H   0  0  0  0  0  0  0  0  0  0  0  0
    2.5411    2.9086   -0.4539 H   0  0  0  0  0  0  0  0  0  0  0  0
    3.8397    0.8403    1.6855 H   0  0  0  0  0  0  0  0  0  0  0  0
    1.8571    0.8658    0.2125 H   0  0  0  0  0  0  0  0  0  0  0  0
    2.7635   -0.0138   -1.0785 H   0  0  0  0  0  0  0  0  0  0  0  0
   -1.0840    0.6206   -1.9690 H   0  0  0  0  0  0  0  0  0  0  0  0
   -0.8957   -3.9213   -0.3635 H   0  0  0  0  0  0  0  0  0  0  0  0
   -3.1308   -3.6580   -1.3665 H   0  0  0  0  0  0  0  0  0  0  0  0
   -3.0717   -5.0942   -0.2968 H   0  0  0  0  0  0  0  0  0  0  0  0
   -3.8926   -3.5934    0.2728 H   0  0  0  0  0  0  0  0  0  0  0  0
   -2.3281   -3.8080    2.3625 H   0  0  0  0  0  0  0  0  0  0  0  0
   -1.4474   -5.1893    1.6279 H   0  0  0  0  0  0  0  0  0  0  0  0
   -0.5368   -3.7289    2.1257 H   0  0  0  0  0  0  0  0  0  0  0  0
  1  2  1  0
  2  3  1  0
  3  4  1  0
  4  5  1  0
  5  6  1  0
  6  7  2  0
  6  8  1  0
  8  9  1  0
  9 10  1  0
 10 11  1  0
 10 12  1  0
  8 13  1  0
 13 14  1  0
 14 15  2  0
 14 16  1  0
 16 17  1  1
 17 18  1  0
 18 19  2  0
 18 20  1  0
 20 21  1  0
 21 22  1  0
 22 23  1  0
 22 24  1  0
 24 25  1  0
 25 26  1  0
 26 27  2  0
 27 28  1  0
 28 29  1  0
 29 30  2  0
 30 31  1  0
 31 32  2  0
 32 33  1  0
 33 34  2  0
 33 35  1  0
 35 36  1  0
 16 37  1  0
 37 38  1  0
 38 39  1  6
 16 40  1  0
 40 41  1  0
 40 42  1  0
  5  1  1  0
 38 13  1  0
 38  1  1  0
 36 20  1  0
 35 24  1  0
 34 26  1  0
 34 29  1  0
  1 43  1  1
  2 44  1  0
  2 45  1  0
  3 46  1  0
  3 47  1  0
  4 48  1  0
  4 49  1  0
  8 50  1  1
  9 51  1  0
  9 52  1  0
 10 53  1  0
 11 54  1  0
 11 55  1  0
 11 56  1  0
 12 57  1  0
 12 58  1  0
 12 59  1  0
 17 60  1  0
 20 61  1  1
 21 62  1  0
 21 63  1  0
 23 64  1  0
 23 65  1  0
 23 66  1  0
 24 67  1  6
 25 68  1  0
 25 69  1  0
 27 70  1  0
 28 71  1  0
 30 72  1  0
 31 73  1  0
 32 74  1  0
 35 75  1  1
 36 76  1  0
 36 77  1  0
 39 78  1  0
 40 79  1  0
 41 80  1  0
 41 81  1  0
 41 82  1  0
 42 83  1  0
 42 84  1  0
 42 85  1  0
M  END
$$$$
