
     RDKit          3D

151153  0  0  0  0  0  0  0  0999 V2000
    2.9667   -2.1446    1.4768 C   0  0  1  0  0  0  0  0  0  0  0  0
    1.7090   -2.7604    1.6773 O   0  0  0  0  0  0  0  0  0  0  0  0
    1.5877   -3.8369    0.7680 C   0  0  1  0  0  0  0  0  0  0  0  0
    0.7214   -4.9655    1.4400 C   0  0  0  0  0  0  0  0  0  0  0  0
   -0.2351   -5.6268    0.4294 C   0  0  1  0  0  0  0  0  0  0  0  0
   -1.0384   -6.5929    1.0609 O   0  0  0  0  0  0  0  0  0  0  0  0
   -1.1110   -4.5804   -0.3228 C   0  0  2  0  0  0  0  0  0  0  0  0
   -1.3691   -5.0720   -1.7594 C   0  0  0  0  0  0  0  0  0  0  0  0
   -0.4363   -3.1785   -0.2546 C   0  0  2  0  0  0  0  0  0  0  0  0
   -0.9466   -2.1479   -1.2819 C   0  0  0  0  0  0  0  0  0  0  0  0
   -2.4173   -1.8684   -1.1368 C   0  0  0  0  0  0  0  0  0  0  0  0
   -2.9066   -1.2178   -0.0766 C   0  0  0  0  0  0  0  0  0  0  0  0
   -4.3423   -0.9348    0.0695 C   0  0  0  0  0  0  0  0  0  0  0  0
   -4.9198   -0.2660    1.1241 C   0  0  0  0  0  0  0  0  0  0  0  0
   -6.2075   -0.2114    0.8948 O   0  0  0  0  0  0  0  0  0  0  0  0
   -6.4262   -0.8232   -0.2499 C   0  0  0  0  0  0  0  0  0  0  0  0
   -5.2937   -1.2932   -0.8151 N   0  0  0  0  0  0  0  0  0  0  0  0
   -7.7810   -0.9558   -0.8918 C   0  0  1  0  0  0  0  0  0  0  0  0
   -8.8938   -1.0229    0.1615 C   0  0  0  0  0  0  0  0  0  0  0  0
   -8.0137    0.1456   -1.9529 C   0  0  0  0  0  0  0  0  0  0  0  0
   -8.0365    1.5871   -1.4058 C   0  0  0  0  0  0  0  0  0  0  0  0
   -9.3433    1.9401   -0.8504 N   0  0  0  0  0  0  0  0  0  0  0  0
   -9.5627    3.1978   -0.1984 C   0  0  0  0  0  0  0  0  0  0  0  0
   -8.6316    4.0463   -0.1283 O   0  0  0  0  0  0  0  0  0  0  0  0
  -10.9226    3.5345    0.3582 C   0  0  1  0  0  0  0  0  0  0  0  0
  -10.7697    4.2525    1.5563 O   0  0  0  0  0  0  0  0  0  0  0  0
  -11.7323    4.3714   -0.6619 C   0  0  1  0  0  0  0  0  0  0  0  0
  -11.8639    3.6438   -1.8596 O   0  0  0  0  0  0  0  0  0  0  0  0
  -13.1434    4.7826   -0.1142 C   0  0  2  0  0  0  0  0  0  0  0  0
  -14.1313    3.6048    0.0474 C   0  0  0  0  0  0  0  0  0  0  0  0
  -14.3423    2.9358   -1.1779 O   0  0  0  0  0  0  0  0  0  0  0  0
  -15.2289    1.8580   -0.9795 C   0  0  0  0  0  0  0  0  0  0  0  0
  -13.7919    5.9050   -0.8545 N   0  0  0  0  0  0  0  0  0  0  0  0
  -13.3145    7.2212   -0.3951 C   0  0  0  0  0  0  0  0  0  0  0  0
  -13.7136    5.8229   -2.3240 C   0  0  0  0  0  0  0  0  0  0  0  0
    0.9605   -3.3339   -0.4165 O   0  0  0  0  0  0  0  0  0  0  0  0
    3.0451   -4.2637    0.4011 C   0  0  0  0  0  0  0  0  0  0  0  0
    3.1318   -5.0396   -0.9367 C   0  0  0  0  0  0  0  0  0  0  0  0
    3.7437   -5.1183    1.4965 C   0  0  0  0  0  0  0  0  0  0  0  0
    3.7210   -2.8861    0.3496 C   0  0  1  0  0  0  0  0  0  0  0  0
    3.4811   -2.2528   -0.8992 O   0  0  0  0  0  0  0  0  0  0  0  0
    4.8897   -2.2299   -1.8743 P   0  0  0  0  0  5  0  0  0  0  0  0
    4.4339   -2.5133   -3.4786 O   0  0  0  0  0  0  0  0  0  0  0  0
    6.0129   -3.4134   -1.4163 O   0  0  0  0  0  0  0  0  0  0  0  0
    5.5393   -0.8678   -1.7861 O   0  0  0  0  0  0  0  0  0  0  0  0
    2.7876   -0.6185    1.2699 C   0  0  2  0  0  0  0  0  0  0  0  0
    4.1533    0.0995    1.3324 C   0  0  0  0  0  0  0  0  0  0  0  0
    4.0592    1.5725    0.8802 C   0  0  2  0  0  0  0  0  0  0  0  0
    3.8192    1.6182   -0.5045 O   0  0  0  0  0  0  0  0  0  0  0  0
    5.3217    2.4195    1.2536 C   0  0  2  0  0  0  0  0  0  0  0  0
    4.9457    3.9143    1.2240 C   0  0  0  0  0  0  0  0  0  0  0  0
    6.5686    2.1095    0.3485 C   0  0  2  0  0  0  0  0  0  0  0  0
    6.9052    0.7475    0.4473 O   0  0  0  0  0  0  0  0  0  0  0  0
    7.8283    3.0003    0.6534 C   0  0  2  0  0  0  0  0  0  0  0  0
    7.9260    4.2451   -0.2511 C   0  0  0  0  0  0  0  0  0  0  0  0
    9.1428    2.2300    0.6564 C   0  0  0  0  0  0  0  0  0  0  0  0
    9.7414    1.6287   -0.3978 C   0  0  0  0  0  0  0  0  0  0  0  0
    9.2159    1.7224   -1.8070 C   0  0  0  0  0  0  0  0  0  0  0  0
   11.0232    0.9061   -0.1827 C   0  0  0  0  0  0  0  0  0  0  0  0
   12.1972    1.2290   -1.0725 C   0  0  0  0  0  0  0  0  0  0  0  0
   11.0920   -0.0544    0.7614 C   0  0  0  0  0  0  0  0  0  0  0  0
   12.3003   -0.8646    1.0297 C   0  0  0  0  0  0  0  0  0  0  0  0
   12.2961   -1.7979    1.9905 C   0  0  0  0  0  0  0  0  0  0  0  0
   13.4783   -2.6515    2.3103 C   0  0  0  0  0  0  0  0  0  0  0  0
   14.8125   -2.3733    1.6613 C   0  0  0  0  0  0  0  0  0  0  0  0
   13.3799   -3.6895    3.1633 C   0  0  0  0  0  0  0  0  0  0  0  0
   12.1532   -4.0589    3.8267 C   0  0  0  0  0  0  0  0  0  0  0  0
   11.1697   -4.3562    4.3593 N   0  0  0  0  0  0  0  0  0  0  0  0
    1.9730   -0.1113    2.3182 O   0  0  0  0  0  0  0  0  0  0  0  0
    0.7180    0.3080    1.8281 C   0  0  0  0  0  0  0  0  0  0  0  0
    3.5414   -2.2829    2.4209 H   0  0  0  0  0  0  0  0  0  0  0  0
    1.3152   -5.7494    1.9428 H   0  0  0  0  0  0  0  0  0  0  0  0
    0.1044   -4.5088    2.2457 H   0  0  0  0  0  0  0  0  0  0  0  0
    0.4035   -6.1652   -0.3019 H   0  0  0  0  0  0  0  0  0  0  0  0
   -1.5667   -6.1326    1.7646 H   0  0  0  0  0  0  0  0  0  0  0  0
   -2.0995   -4.4967    0.1820 H   0  0  0  0  0  0  0  0  0  0  0  0
   -1.7398   -6.1193   -1.7434 H   0  0  0  0  0  0  0  0  0  0  0  0
   -2.1483   -4.4590   -2.2557 H   0  0  0  0  0  0  0  0  0  0  0  0
   -0.4343   -5.0339   -2.3592 H   0  0  0  0  0  0  0  0  0  0  0  0
   -0.6593   -2.7414    0.7472 H   0  0  0  0  0  0  0  0  0  0  0  0
   -0.3863   -1.1961   -1.1506 H   0  0  0  0  0  0  0  0  0  0  0  0
   -0.7344   -2.4974   -2.3143 H   0  0  0  0  0  0  0  0  0  0  0  0
   -3.0788   -2.1816   -1.9354 H   0  0  0  0  0  0  0  0  0  0  0  0
   -2.2365   -0.8822    0.7053 H   0  0  0  0  0  0  0  0  0  0  0  0
   -4.4221    0.1479    1.9911 H   0  0  0  0  0  0  0  0  0  0  0  0
   -7.7940   -1.9295   -1.4301 H   0  0  0  0  0  0  0  0  0  0  0  0
   -8.9013   -0.1134    0.7983 H   0  0  0  0  0  0  0  0  0  0  0  0
   -8.7378   -1.9057    0.8179 H   0  0  0  0  0  0  0  0  0  0  0  0
   -9.8827   -1.1318   -0.3323 H   0  0  0  0  0  0  0  0  0  0  0  0
   -7.1948    0.0760   -2.7028 H   0  0  0  0  0  0  0  0  0  0  0  0
   -8.9556   -0.0620   -2.5064 H   0  0  0  0  0  0  0  0  0  0  0  0
   -7.2499    1.7253   -0.6348 H   0  0  0  0  0  0  0  0  0  0  0  0
   -7.8112    2.2855   -2.2406 H   0  0  0  0  0  0  0  0  0  0  0  0
  -10.1495    1.2824   -0.9479 H   0  0  0  0  0  0  0  0  0  0  0  0
  -11.4684    2.5852    0.5608 H   0  0  0  0  0  0  0  0  0  0  0  0
  -10.5022    3.5966    2.2524 H   0  0  0  0  0  0  0  0  0  0  0  0
  -11.1576    5.3089   -0.8488 H   0  0  0  0  0  0  0  0  0  0  0  0
  -11.0797    3.8623   -2.4281 H   0  0  0  0  0  0  0  0  0  0  0  0
  -12.9848    5.1263    0.9331 H   0  0  0  0  0  0  0  0  0  0  0  0
  -13.7329    2.9033    0.8148 H   0  0  0  0  0  0  0  0  0  0  0  0
  -15.0931    4.0159    0.4328 H   0  0  0  0  0  0  0  0  0  0  0  0
  -14.7986    1.1069   -0.2805 H   0  0  0  0  0  0  0  0  0  0  0  0
  -16.2182    2.2109   -0.6120 H   0  0  0  0  0  0  0  0  0  0  0  0
  -15.3939    1.3531   -1.9533 H   0  0  0  0  0  0  0  0  0  0  0  0
  -13.5013    7.3415    0.6935 H   0  0  0  0  0  0  0  0  0  0  0  0
  -13.8736    8.0339   -0.9071 H   0  0  0  0  0  0  0  0  0  0  0  0
  -12.2297    7.3515   -0.5965 H   0  0  0  0  0  0  0  0  0  0  0  0
  -14.3839    6.5846   -2.7767 H   0  0  0  0  0  0  0  0  0  0  0  0
  -12.6802    6.0109   -2.6881 H   0  0  0  0  0  0  0  0  0  0  0  0
  -14.0652    4.8392   -2.6903 H   0  0  0  0  0  0  0  0  0  0  0  0
    2.6706   -4.4849   -1.7801 H   0  0  0  0  0  0  0  0  0  0  0  0
    2.6192   -6.0188   -0.8511 H   0  0  0  0  0  0  0  0  0  0  0  0
    4.1909   -5.2449   -1.1957 H   0  0  0  0  0  0  0  0  0  0  0  0
    4.8437   -5.1316    1.3376 H   0  0  0  0  0  0  0  0  0  0  0  0
    3.4143   -6.1781    1.4587 H   0  0  0  0  0  0  0  0  0  0  0  0
    3.5444   -4.7200    2.5139 H   0  0  0  0  0  0  0  0  0  0  0  0
    4.8000   -2.9198    0.6293 H   0  0  0  0  0  0  0  0  0  0  0  0
    3.6972   -1.8734   -3.6483 H   0  0  0  0  0  0  0  0  0  0  0  0
    6.7376   -3.3480   -2.0880 H   0  0  0  0  0  0  0  0  0  0  0  0
    2.3509   -0.4487    0.2551 H   0  0  0  0  0  0  0  0  0  0  0  0
    4.5402    0.0481    2.3740 H   0  0  0  0  0  0  0  0  0  0  0  0
    4.8652   -0.4385    0.6827 H   0  0  0  0  0  0  0  0  0  0  0  0
    3.1852    2.0036    1.4228 H   0  0  0  0  0  0  0  0  0  0  0  0
    3.3382    2.4663   -0.6894 H   0  0  0  0  0  0  0  0  0  0  0  0
    5.5908    2.1875    2.3083 H   0  0  0  0  0  0  0  0  0  0  0  0
    5.7142    4.5253    1.7384 H   0  0  0  0  0  0  0  0  0  0  0  0
    3.9971    4.0965    1.7721 H   0  0  0  0  0  0  0  0  0  0  0  0
    4.8226    4.2693    0.1788 H   0  0  0  0  0  0  0  0  0  0  0  0
    6.2615    2.2882   -0.7036 H   0  0  0  0  0  0  0  0  0  0  0  0
    7.1255    0.5633    1.3984 H   0  0  0  0  0  0  0  0  0  0  0  0
    7.7264    3.3784    1.6942 H   0  0  0  0  0  0  0  0  0  0  0  0
    7.7695    3.9914   -1.3182 H   0  0  0  0  0  0  0  0  0  0  0  0
    7.1660    5.0007    0.0249 H   0  0  0  0  0  0  0  0  0  0  0  0
    8.9206    4.7284   -0.1400 H   0  0  0  0  0  0  0  0  0  0  0  0
    9.6316    2.1593    1.6226 H   0  0  0  0  0  0  0  0  0  0  0  0
    9.4923    2.7024   -2.2475 H   0  0  0  0  0  0  0  0  0  0  0  0
    9.6613    0.9244   -2.4383 H   0  0  0  0  0  0  0  0  0  0  0  0
    8.1205    1.5814   -1.8479 H   0  0  0  0  0  0  0  0  0  0  0  0
   11.9816    2.1061   -1.7183 H   0  0  0  0  0  0  0  0  0  0  0  0
   12.4280    0.3600   -1.7240 H   0  0  0  0  0  0  0  0  0  0  0  0
   13.0854    1.4835   -0.4566 H   0  0  0  0  0  0  0  0  0  0  0  0
   10.2061   -0.2654    1.3515 H   0  0  0  0  0  0  0  0  0  0  0  0
   13.1877   -0.7081    0.4339 H   0  0  0  0  0  0  0  0  0  0  0  0
   11.3833   -1.9397    2.5571 H   0  0  0  0  0  0  0  0  0  0  0  0
   15.6313   -2.9825    2.1013 H   0  0  0  0  0  0  0  0  0  0  0  0
   15.0824   -1.3050    1.7980 H   0  0  0  0  0  0  0  0  0  0  0  0
   14.7539   -2.6033    0.5768 H   0  0  0  0  0  0  0  0  0  0  0  0
   14.2477   -4.3017    3.3754 H   0  0  0  0  0  0  0  0  0  0  0  0
    0.1785   -0.5307    1.3403 H   0  0  0  0  0  0  0  0  0  0  0  0
    0.1013    0.6568    2.6813 H   0  0  0  0  0  0  0  0  0  0  0  0
    0.8314    1.1576    1.1194 H   0  0  0  0  0  0  0  0  0  0  0  0
  1  2  1  0
  3  2  1  1
  3  4  1  0
  4  5  1  0
  5  6  1  0
  5  7  1  0
  7  8  1  0
  7  9  1  0
  9 10  1  0
 10 11  1  0
 11 12  2  0
 12 13  1  0
 13 14  2  0
 14 15  1  0
 15 16  1  0
 16 17  2  0
 16 18  1  0
 18 19  1  0
 18 20  1  0
 20 21  1  0
 21 22  1  0
 22 23  1  0
 23 24  2  0
 23 25  1  0
 25 26  1  0
 25 27  1  0
 27 28  1  0
 27 29  1  0
 29 30  1  0
 30 31  1  0
 31 32  1  0
 29 33  1  0
 33 34  1  0
 33 35  1  0
  9 36  1  0
  3 37  1  0
 37 38  1  0
 37 39  1  0
 37 40  1  0
 40 41  1  0
 41 42  1  0
 42 43  1  0
 42 44  1  0
 42 45  2  0
  1 46  1  0
 46 47  1  0
 47 48  1  0
 48 49  1  0
 48 50  1  0
 50 51  1  0
 50 52  1  0
 52 53  1  0
 52 54  1  0
 54 55  1  0
 54 56  1  0
 56 57  2  0
 57 58  1  0
 57 59  1  0
 59 60  1  0
 59 61  2  0
 61 62  1  0
 62 63  2  0
 63 64  1  0
 64 65  1  0
 64 66  2  0
 66 67  1  0
 67 68  3  0
 46 69  1  0
 69 70  1  0
 40  1  1  0
 36  3  1  0
 17 13  1  0
  1 71  1  1
  4 72  1  0
  4 73  1  0
  5 74  1  6
  6 75  1  0
  7 76  1  1
  8 77  1  0
  8 78  1  0
  8 79  1  0
  9 80  1  1
 10 81  1  0
 10 82  1  0
 11 83  1  0
 12 84  1  0
 14 85  1  0
 18 86  1  6
 19 87  1  0
 19 88  1  0
 19 89  1  0
 20 90  1  0
 20 91  1  0
 21 92  1  0
 21 93  1  0
 22 94  1  0
 25 95  1  1
 26 96  1  0
 27 97  1  6
 28 98  1  0
 29 99  1  1
 30100  1  0
 30101  1  0
 32102  1  0
 32103  1  0
 32104  1  0
 34105  1  0
 34106  1  0
 34107  1  0
 35108  1  0
 35109  1  0
 35110  1  0
 38111  1  0
 38112  1  0
 38113  1  0
 39114  1  0
 39115  1  0
 39116  1  0
 40117  1  1
 43118  1  0
 44119  1  0
 46120  1  6
 47121  1  0
 47122  1  0
 48123  1  1
 49124  1  0
 50125  1  1
 51126  1  0
 51127  1  0
 51128  1  0
 52129  1  6
 53130  1  0
 54131  1  1
 55132  1  0
 55133  1  0
 55134  1  0
 56135  1  0
 58136  1  0
 58137  1  0
 58138  1  0
 60139  1  0
 60140  1  0
 60141  1  0
 61142  1  0
 62143  1  0
 63144  1  0
 65145  1  0
 65146  1  0
 65147  1  0
 66148  1  0
 70149  1  0
 70150  1  0
 70151  1  0
M  END
$$$$
