
     RDKit          3D

 61 63  0  0  0  0  0  0  0  0999 V2000
   -8.3334    1.1877    0.8983 C   0  0  0  0  0  0  0  0  0  0  0  0
   -7.1412    0.4095    0.8823 O   0  0  0  0  0  0  0  0  0  0  0  0
   -7.0366   -0.9038    1.3707 C   0  0  0  0  0  0  0  0  0  0  0  0
   -5.7930   -1.5712    1.2982 C   0  0  0  0  0  0  0  0  0  0  0  0
   -5.6995   -2.9094    1.7183 C   0  0  0  0  0  0  0  0  0  0  0  0
   -6.8145   -3.5703    2.2390 C   0  0  0  0  0  0  0  0  0  0  0  0
   -6.6778   -5.2355    2.7738 Cl  0  0  0  0  0  0  0  0  0  0  0  0
   -8.0364   -2.9041    2.3378 C   0  0  0  0  0  0  0  0  0  0  0  0
   -8.1509   -1.5815    1.9060 C   0  0  0  0  0  0  0  0  0  0  0  0
   -4.5857   -0.9007    0.7660 C   0  0  0  0  0  0  0  0  0  0  0  0
   -3.7956   -1.5502    0.0274 O   0  0  0  0  0  0  0  0  0  0  0  0
   -4.2884    0.4625    1.1079 N   0  0  0  0  0  0  0  0  0  0  0  0
   -3.1656    1.1909    0.5216 C   0  0  0  0  0  0  0  0  0  0  0  0
   -1.8526    0.7810    1.1935 C   0  0  0  0  0  0  0  0  0  0  0  0
   -0.6963    1.5429    0.6043 C   0  0  0  0  0  0  0  0  0  0  0  0
   -0.3108    2.7788    1.1474 C   0  0  0  0  0  0  0  0  0  0  0  0
    0.7440    3.5002    0.5803 C   0  0  0  0  0  0  0  0  0  0  0  0
    1.4198    2.9978   -0.5395 C   0  0  0  0  0  0  0  0  0  0  0  0
    1.0231    1.7749   -1.0966 C   0  0  0  0  0  0  0  0  0  0  0  0
   -0.0303    1.0520   -0.5299 C   0  0  0  0  0  0  0  0  0  0  0  0
    2.7522    3.8999   -1.2538 S   0  0  0  0  0  6  0  0  0  0  0  0
    2.2250    4.7462   -2.3777 O   0  0  0  0  0  0  0  0  0  0  0  0
    3.3958    4.7888   -0.2265 O   0  0  0  0  0  0  0  0  0  0  0  0
    3.9422    2.8019   -1.8704 N   0  0  0  0  0  0  0  0  0  0  0  0
    4.5723    1.8285   -1.0317 C   0  0  0  0  0  0  0  0  0  0  0  0
    4.3397    1.8177    0.2079 O   0  0  0  0  0  0  0  0  0  0  0  0
    5.4629    0.8629   -1.6066 N   0  0  0  0  0  0  0  0  0  0  0  0
    6.0560   -0.2221   -0.8161 C   0  0  0  0  0  0  0  0  0  0  0  0
    7.2539   -0.8549   -1.5708 C   0  0  0  0  0  0  0  0  0  0  0  0
    6.8153   -2.0417   -2.4352 C   0  0  0  0  0  0  0  0  0  0  0  0
    6.2005   -3.1703   -1.5819 C   0  0  0  0  0  0  0  0  0  0  0  0
    5.5418   -2.6671   -0.2817 C   0  0  0  0  0  0  0  0  0  0  0  0
    4.9622   -1.2593   -0.4528 C   0  0  0  0  0  0  0  0  0  0  0  0
   -8.6826    1.3298    1.9428 H   0  0  0  0  0  0  0  0  0  0  0  0
   -9.1219    0.6912    0.2941 H   0  0  0  0  0  0  0  0  0  0  0  0
   -8.1218    2.1828    0.4565 H   0  0  0  0  0  0  0  0  0  0  0  0
   -4.7541   -3.4354    1.6574 H   0  0  0  0  0  0  0  0  0  0  0  0
   -8.9020   -3.4130    2.7427 H   0  0  0  0  0  0  0  0  0  0  0  0
   -9.1151   -1.0981    1.9825 H   0  0  0  0  0  0  0  0  0  0  0  0
   -4.8781    0.9579    1.8136 H   0  0  0  0  0  0  0  0  0  0  0  0
   -3.3258    2.2815    0.6701 H   0  0  0  0  0  0  0  0  0  0  0  0
   -3.1219    0.9986   -0.5730 H   0  0  0  0  0  0  0  0  0  0  0  0
   -1.9196    0.9778    2.2861 H   0  0  0  0  0  0  0  0  0  0  0  0
   -1.6845   -0.3102    1.0665 H   0  0  0  0  0  0  0  0  0  0  0  0
   -0.8278    3.1838    2.0086 H   0  0  0  0  0  0  0  0  0  0  0  0
    1.0300    4.4502    1.0131 H   0  0  0  0  0  0  0  0  0  0  0  0
    1.5278    1.3814   -1.9699 H   0  0  0  0  0  0  0  0  0  0  0  0
   -0.3284    0.1110   -0.9757 H   0  0  0  0  0  0  0  0  0  0  0  0
    4.1604    2.8241   -2.8911 H   0  0  0  0  0  0  0  0  0  0  0  0
    5.6676    0.9293   -2.6296 H   0  0  0  0  0  0  0  0  0  0  0  0
    6.4631    0.2099    0.1256 H   0  0  0  0  0  0  0  0  0  0  0  0
    7.7647   -0.0966   -2.2033 H   0  0  0  0  0  0  0  0  0  0  0  0
    8.0055   -1.2140   -0.8331 H   0  0  0  0  0  0  0  0  0  0  0  0
    7.6889   -2.4357   -2.9980 H   0  0  0  0  0  0  0  0  0  0  0  0
    6.0679   -1.6889   -3.1797 H   0  0  0  0  0  0  0  0  0  0  0  0
    5.4437   -3.7070   -2.1945 H   0  0  0  0  0  0  0  0  0  0  0  0
    6.9916   -3.9050   -1.3165 H   0  0  0  0  0  0  0  0  0  0  0  0
    6.2959   -2.6502    0.5359 H   0  0  0  0  0  0  0  0  0  0  0  0
    4.7345   -3.3688    0.0207 H   0  0  0  0  0  0  0  0  0  0  0  0
    4.4574   -0.9537    0.4891 H   0  0  0  0  0  0  0  0  0  0  0  0
    4.1867   -1.2938   -1.2506 H   0  0  0  0  0  0  0  0  0  0  0  0
  1  2  1  0
  2  3  1  0
  3  4  2  0
  4  5  1  0
  5  6  2  0
  6  7  1  0
  6  8  1  0
  8  9  2  0
  4 10  1  0
 10 11  2  0
 10 12  1  0
 12 13  1  0
 13 14  1  0
 14 15  1  0
 15 16  2  0
 16 17  1  0
 17 18  2  0
 18 19  1  0
 19 20  2  0
 18 21  1  0
 21 22  2  0
 21 23  2  0
 21 24  1  0
 24 25  1  0
 25 26  2  0
 25 27  1  0
 27 28  1  0
 28 29  1  0
 29 30  1  0
 30 31  1  0
 31 32  1  0
 32 33  1  0
  9  3  1  0
 20 15  1  0
 33 28  1  0
  1 34  1  0
  1 35  1  0
  1 36  1  0
  5 37  1  0
  8 38  1  0
  9 39  1  0
 12 40  1  0
 13 41  1  0
 13 42  1  0
 14 43  1  0
 14 44  1  0
 16 45  1  0
 17 46  1  0
 19 47  1  0
 20 48  1  0
 24 49  1  0
 27 50  1  0
 28 51  1  0
 29 52  1  0
 29 53  1  0
 30 54  1  0
 30 55  1  0
 31 56  1  0
 31 57  1  0
 32 58  1  0
 32 59  1  0
 33 60  1  0
 33 61  1  0
M  END
$$$$
