
     RDKit          3D

 41 43  0  0  0  0  0  0  0  0999 V2000
   -1.2687    0.5754    0.2414 C   0  0  1  0  0  0  0  0  0  0  0  0
   -2.0847    1.2039   -0.9226 C   0  0  0  0  0  0  0  0  0  0  0  0
   -3.5017    1.6435   -0.5160 C   0  0  0  0  0  0  0  0  0  0  0  0
   -4.3934    0.4851   -0.1965 C   0  0  0  0  0  0  0  0  0  0  0  0
   -4.9934   -0.2937   -1.1151 N   0  0  0  0  0  0  0  0  0  0  0  0
   -5.6339   -1.2167   -0.4103 N   0  0  0  0  0  0  0  0  0  0  0  0
   -5.4312   -1.0204    0.8844 N   0  0  0  0  0  0  0  0  0  0  0  0
   -4.6558    0.0369    1.0405 N   0  0  0  0  0  0  0  0  0  0  0  0
   -1.4375   -0.9723    0.3101 C   0  0  0  0  0  0  0  0  0  0  0  0
   -0.3334   -1.7164   -0.4523 C   0  0  0  0  0  0  0  0  0  0  0  0
    1.0935   -1.3826    0.0705 C   0  0  1  0  0  0  0  0  0  0  0  0
    2.0952   -1.4136   -1.1108 C   0  0  0  0  0  0  0  0  0  0  0  0
    3.4430   -1.0029   -0.7038 N   0  0  0  0  0  0  0  0  0  0  0  0
    3.4280    0.3794   -0.2051 C   0  0  1  0  0  0  0  0  0  0  0  0
    2.5722    0.4827    1.0659 C   0  0  0  0  0  0  0  0  0  0  0  0
    1.1352   -0.0319    0.8432 C   0  0  1  0  0  0  0  0  0  0  0  0
    0.2242    1.0027    0.1577 C   0  0  0  0  0  0  0  0  0  0  0  0
    4.8328    0.8320    0.0754 C   0  0  0  0  0  0  0  0  0  0  0  0
    5.6552    0.0826    0.9123 O   0  0  0  0  0  0  0  0  0  0  0  0
    5.2640    1.9022   -0.4317 O   0  0  0  0  0  0  0  0  0  0  0  0
   -1.6579    0.9832    1.2019 H   0  0  0  0  0  0  0  0  0  0  0  0
   -1.5703    2.1213   -1.2853 H   0  0  0  0  0  0  0  0  0  0  0  0
   -2.1329    0.5090   -1.7898 H   0  0  0  0  0  0  0  0  0  0  0  0
   -3.4518    2.3321    0.3551 H   0  0  0  0  0  0  0  0  0  0  0  0
   -3.9550    2.2105   -1.3574 H   0  0  0  0  0  0  0  0  0  0  0  0
   -4.3198    0.4165    1.9530 H   0  0  0  0  0  0  0  0  0  0  0  0
   -1.4126   -1.2983    1.3733 H   0  0  0  0  0  0  0  0  0  0  0  0
   -2.4199   -1.2922   -0.0919 H   0  0  0  0  0  0  0  0  0  0  0  0
   -0.4372   -1.4542   -1.5284 H   0  0  0  0  0  0  0  0  0  0  0  0
   -0.5072   -2.8114   -0.3697 H   0  0  0  0  0  0  0  0  0  0  0  0
    1.3936   -2.1799    0.7876 H   0  0  0  0  0  0  0  0  0  0  0  0
    2.1449   -2.4476   -1.5164 H   0  0  0  0  0  0  0  0  0  0  0  0
    1.7482   -0.7586   -1.9409 H   0  0  0  0  0  0  0  0  0  0  0  0
    3.7765   -1.6511    0.0494 H   0  0  0  0  0  0  0  0  0  0  0  0
    3.0018    1.0508   -0.9854 H   0  0  0  0  0  0  0  0  0  0  0  0
    3.0412   -0.1275    1.8703 H   0  0  0  0  0  0  0  0  0  0  0  0
    2.5512    1.5353    1.4250 H   0  0  0  0  0  0  0  0  0  0  0  0
    0.7180   -0.2049    1.8617 H   0  0  0  0  0  0  0  0  0  0  0  0
    0.3394    1.9971    0.6422 H   0  0  0  0  0  0  0  0  0  0  0  0
    0.5387    1.1122   -0.9034 H   0  0  0  0  0  0  0  0  0  0  0  0
    6.6015    0.3819    1.1148 H   0  0  0  0  0  0  0  0  0  0  0  0
  1  2  1  0
  2  3  1  0
  3  4  1  0
  4  5  2  0
  5  6  1  0
  6  7  2  0
  7  8  1  0
  1  9  1  0
  9 10  1  0
 10 11  1  0
 11 12  1  0
 12 13  1  0
 13 14  1  0
 14 15  1  0
 15 16  1  0
 16 17  1  0
 14 18  1  0
 18 19  1  0
 18 20  2  0
 17  1  1  0
  8  4  1  0
 16 11  1  0
  1 21  1  1
  2 22  1  0
  2 23  1  0
  3 24  1  0
  3 25  1  0
  8 26  1  0
  9 27  1  0
  9 28  1  0
 10 29  1  0
 10 30  1  0
 11 31  1  1
 12 32  1  0
 12 33  1  0
 13 34  1  0
 14 35  1  6
 15 36  1  0
 15 37  1  0
 16 38  1  1
 17 39  1  0
 17 40  1  0
 19 41  1  0
M  END
$$$$
