
     RDKit          3D

160166  0  0  0  0  0  0  0  0999 V2000
   10.3395   -9.9484    3.5490 C   0  0  0  0  0  0  0  0  0  0  0  0
   11.4168   -9.4019    4.4802 C   0  0  0  0  0  0  0  0  0  0  0  0
   11.9527   -8.0577    3.9791 C   0  0  0  0  0  0  0  0  0  0  0  0
   13.0264   -7.5076    4.9273 C   0  0  0  0  0  0  0  0  0  0  0  0
   13.6894   -6.2302    4.3989 C   0  0  0  0  0  0  0  0  0  0  0  0
   12.7855   -5.1224    4.4299 O   0  0  0  0  0  0  0  0  0  0  0  0
   11.8961   -4.7419    3.4104 C   0  0  0  0  0  0  0  0  0  0  0  0
   10.9113   -3.7985    3.7202 C   0  0  0  0  0  0  0  0  0  0  0  0
    9.9944   -3.3781    2.7534 C   0  0  0  0  0  0  0  0  0  0  0  0
   10.0466   -3.9006    1.4493 C   0  0  0  0  0  0  0  0  0  0  0  0
   11.0425   -4.8390    1.1345 C   0  0  0  0  0  0  0  0  0  0  0  0
   11.9588   -5.2584    2.1022 C   0  0  0  0  0  0  0  0  0  0  0  0
    9.0750   -3.4892    0.4101 C   0  0  0  0  0  0  0  0  0  0  0  0
    8.0416   -2.5796    0.5332 C   0  0  0  0  0  0  0  0  0  0  0  0
    7.4381   -2.5930   -0.7140 C   0  0  0  0  0  0  0  0  0  0  0  0
    8.0939   -3.4586   -1.5131 N   0  0  0  0  0  0  0  0  0  0  0  0
    9.0602   -3.9725   -0.8114 O   0  0  0  0  0  0  0  0  0  0  0  0
    6.2268   -1.8454   -1.1328 C   0  0  0  0  0  0  0  0  0  0  0  0
    5.6771   -2.0603   -2.4083 C   0  0  0  0  0  0  0  0  0  0  0  0
    4.5077   -1.4047   -2.8004 C   0  0  0  0  0  0  0  0  0  0  0  0
    3.8538   -0.5123   -1.9307 C   0  0  0  0  0  0  0  0  0  0  0  0
    4.4130   -0.2910   -0.6558 C   0  0  0  0  0  0  0  0  0  0  0  0
    5.5838   -0.9482   -0.2636 C   0  0  0  0  0  0  0  0  0  0  0  0
    2.5779    0.1292   -2.3566 C   0  0  0  0  0  0  0  0  0  0  0  0
    2.0873   -0.1670   -3.4802 O   0  0  0  0  0  0  0  0  0  0  0  0
    1.8753    1.0575   -1.5134 N   0  0  0  0  0  0  0  0  0  0  0  0
    0.4210    1.2386   -1.5947 C   0  0  1  0  0  0  0  0  0  0  0  0
   -0.2501    0.8519   -0.2618 C   0  0  0  0  0  0  0  0  0  0  0  0
    0.1100   -0.5756    0.2034 C   0  0  1  0  0  0  0  0  0  0  0  0
    1.3908   -0.5632    0.7796 O   0  0  0  0  0  0  0  0  0  0  0  0
   -0.9060   -1.1229    1.2373 C   0  0  1  0  0  0  0  0  0  0  0  0
   -1.1240   -0.1854    2.2615 O   0  0  0  0  0  0  0  0  0  0  0  0
   -2.1825   -1.4450    0.5940 N   0  0  0  0  0  0  0  0  0  0  0  0
   -2.3507   -2.6158   -0.2194 C   0  0  0  0  0  0  0  0  0  0  0  0
   -1.3464   -3.3089   -0.5435 O   0  0  0  0  0  0  0  0  0  0  0  0
   -3.7167   -3.0046   -0.7290 C   0  0  2  0  0  0  0  0  0  0  0  0
   -3.9946   -4.5016   -0.5241 C   0  0  1  0  0  0  0  0  0  0  0  0
   -5.3690   -4.6772   -0.2812 O   0  0  0  0  0  0  0  0  0  0  0  0
   -3.5772   -5.1573   -1.8574 C   0  0  1  0  0  0  0  0  0  0  0  0
   -4.3587   -6.4284   -2.2138 C   0  0  0  0  0  0  0  0  0  0  0  0
   -3.7216   -4.0591   -2.9139 C   0  0  0  0  0  0  0  0  0  0  0  0
   -3.7703   -2.8092   -2.1723 N   0  0  0  0  0  0  0  0  0  0  0  0
   -3.8583   -1.5335   -2.8310 C   0  0  0  0  0  0  0  0  0  0  0  0
   -3.3026   -1.3879   -3.9555 O   0  0  0  0  0  0  0  0  0  0  0  0
   -4.6782   -0.4004   -2.2447 C   0  0  1  0  0  0  0  0  0  0  0  0
   -4.2899    0.8925   -2.8257 N   0  0  0  0  0  0  0  0  0  0  0  0
   -4.5507    2.1495   -2.1827 C   0  0  0  0  0  0  0  0  0  0  0  0
   -4.9901    3.1020   -2.8842 O   0  0  0  0  0  0  0  0  0  0  0  0
   -4.2398    2.3852   -0.7143 C   0  0  1  0  0  0  0  0  0  0  0  0
   -3.4482    3.6112   -0.5558 N   0  0  0  0  0  0  0  0  0  0  0  0
   -2.6655    3.8655    0.6218 C   0  0  0  0  0  0  0  0  0  0  0  0
   -2.4039    2.9275    1.4223 O   0  0  0  0  0  0  0  0  0  0  0  0
   -2.2008    5.2612    0.9519 C   0  0  2  0  0  0  0  0  0  0  0  0
   -3.3490    6.1009    1.5130 C   0  0  0  0  0  0  0  0  0  0  0  0
   -3.7977    7.0163    0.3711 C   0  0  1  0  0  0  0  0  0  0  0  0
   -4.1053    8.3020    0.8385 O   0  0  0  0  0  0  0  0  0  0  0  0
   -2.6256    7.0677   -0.6068 C   0  0  0  0  0  0  0  0  0  0  0  0
   -1.7552    5.9603   -0.2479 N   0  0  0  0  0  0  0  0  0  0  0  0
   -0.6050    5.5997   -1.0387 C   0  0  0  0  0  0  0  0  0  0  0  0
   -0.4761    6.0832   -2.1973 O   0  0  0  0  0  0  0  0  0  0  0  0
    0.4806    4.6920   -0.4991 C   0  0  1  0  0  0  0  0  0  0  0  0
    0.9267    3.7468   -1.5278 N   0  0  0  0  0  0  0  0  0  0  0  0
    0.0777    2.6666   -1.9350 C   0  0  0  0  0  0  0  0  0  0  0  0
   -1.0191    2.9168   -2.5042 O   0  0  0  0  0  0  0  0  0  0  0  0
    1.6711    5.4964    0.0884 C   0  0  1  0  0  0  0  0  0  0  0  0
    2.3198    6.4557   -0.9175 C   0  0  0  0  0  0  0  0  0  0  0  0
    1.2489    6.2363    1.2053 O   0  0  0  0  0  0  0  0  0  0  0  0
   -5.5027    2.4582    0.1927 C   0  0  2  0  0  0  0  0  0  0  0  0
   -6.0788    1.1832    0.3243 O   0  0  0  0  0  0  0  0  0  0  0  0
   -6.5650    3.4875   -0.3000 C   0  0  1  0  0  0  0  0  0  0  0  0
   -7.4152    2.9266   -1.2700 O   0  0  0  0  0  0  0  0  0  0  0  0
   -7.3827    4.1183    0.8195 C   0  0  0  0  0  0  0  0  0  0  0  0
   -7.7770    5.4639    0.7069 C   0  0  0  0  0  0  0  0  0  0  0  0
   -8.5624    6.0731    1.7047 C   0  0  0  0  0  0  0  0  0  0  0  0
   -8.9814    7.4090    1.6210 O   0  0  0  0  0  0  0  0  0  0  0  0
   -8.7720    8.4110    0.2496 S   0  0  0  0  0  6  0  0  0  0  0  0
   -7.1324    8.6205   -0.0581 O   0  0  0  0  0  0  0  0  0  0  0  0
   -9.4379    7.7775   -0.9399 O   0  0  0  0  0  0  0  0  0  0  0  0
   -9.4012    9.7482    0.5187 O   0  0  0  0  0  0  0  0  0  0  0  0
   -8.9496    5.3252    2.8241 C   0  0  0  0  0  0  0  0  0  0  0  0
   -9.7073    5.9279    3.8271 O   0  0  0  0  0  0  0  0  0  0  0  0
   -8.5868    3.9767    2.9276 C   0  0  0  0  0  0  0  0  0  0  0  0
   -7.8258    3.3716    1.9262 C   0  0  0  0  0  0  0  0  0  0  0  0
   -6.2054   -0.6307   -2.4077 C   0  0  2  0  0  0  0  0  0  0  0  0
   -6.5908   -1.7913   -1.7156 O   0  0  0  0  0  0  0  0  0  0  0  0
   -6.7141   -0.6616   -3.8710 C   0  0  0  0  0  0  0  0  0  0  0  0
   -6.4419   -1.9550   -4.5878 C   0  0  0  0  0  0  0  0  0  0  0  0
   -5.5843   -1.9882   -5.7287 N   0  0  0  0  0  0  0  0  0  0  0  0
   -7.0071   -3.0140   -4.2062 O   0  0  0  0  0  0  0  0  0  0  0  0
    9.9643  -10.9161    3.9426 H   0  0  0  0  0  0  0  0  0  0  0  0
   10.7579  -10.1157    2.5332 H   0  0  0  0  0  0  0  0  0  0  0  0
    9.4888   -9.2364    3.4836 H   0  0  0  0  0  0  0  0  0  0  0  0
   10.9853   -9.2764    5.4968 H   0  0  0  0  0  0  0  0  0  0  0  0
   12.2473  -10.1404    4.5382 H   0  0  0  0  0  0  0  0  0  0  0  0
   12.3890   -8.1943    2.9655 H   0  0  0  0  0  0  0  0  0  0  0  0
   11.1108   -7.3382    3.9155 H   0  0  0  0  0  0  0  0  0  0  0  0
   13.8166   -8.2783    5.0661 H   0  0  0  0  0  0  0  0  0  0  0  0
   12.5759   -7.2972    5.9219 H   0  0  0  0  0  0  0  0  0  0  0  0
   14.1347   -6.3841    3.3958 H   0  0  0  0  0  0  0  0  0  0  0  0
   14.5359   -5.9883    5.0779 H   0  0  0  0  0  0  0  0  0  0  0  0
   10.8542   -3.3896    4.7210 H   0  0  0  0  0  0  0  0  0  0  0  0
    9.2468   -2.6512    3.0348 H   0  0  0  0  0  0  0  0  0  0  0  0
   11.1112   -5.2529    0.1353 H   0  0  0  0  0  0  0  0  0  0  0  0
   12.7089   -5.9778    1.8106 H   0  0  0  0  0  0  0  0  0  0  0  0
    7.7575   -2.0100    1.4063 H   0  0  0  0  0  0  0  0  0  0  0  0
    6.1431   -2.7495   -3.1013 H   0  0  0  0  0  0  0  0  0  0  0  0
    4.1085   -1.6126   -3.7850 H   0  0  0  0  0  0  0  0  0  0  0  0
    3.9521    0.3702    0.0595 H   0  0  0  0  0  0  0  0  0  0  0  0
    5.9751   -0.7523    0.7251 H   0  0  0  0  0  0  0  0  0  0  0  0
    2.3874    1.5828   -0.7719 H   0  0  0  0  0  0  0  0  0  0  0  0
   -0.0037    0.5867   -2.3897 H   0  0  0  0  0  0  0  0  0  0  0  0
   -1.3485    0.9229   -0.4055 H   0  0  0  0  0  0  0  0  0  0  0  0
    0.0333    1.5789    0.5310 H   0  0  0  0  0  0  0  0  0  0  0  0
    0.1135   -1.2421   -0.6895 H   0  0  0  0  0  0  0  0  0  0  0  0
    1.7422   -1.4912    0.7241 H   0  0  0  0  0  0  0  0  0  0  0  0
   -0.5025   -2.0614    1.6874 H   0  0  0  0  0  0  0  0  0  0  0  0
   -0.3187   -0.1992    2.8422 H   0  0  0  0  0  0  0  0  0  0  0  0
   -3.0182   -0.8586    0.8141 H   0  0  0  0  0  0  0  0  0  0  0  0
   -4.5010   -2.4113   -0.2133 H   0  0  0  0  0  0  0  0  0  0  0  0
   -3.3974   -4.9140    0.3244 H   0  0  0  0  0  0  0  0  0  0  0  0
   -5.4649   -5.5161    0.2402 H   0  0  0  0  0  0  0  0  0  0  0  0
   -2.5005   -5.4300   -1.7839 H   0  0  0  0  0  0  0  0  0  0  0  0
   -4.2423   -7.1832   -1.4074 H   0  0  0  0  0  0  0  0  0  0  0  0
   -3.9630   -6.8594   -3.1573 H   0  0  0  0  0  0  0  0  0  0  0  0
   -5.4390   -6.2092   -2.3529 H   0  0  0  0  0  0  0  0  0  0  0  0
   -4.6600   -4.1740   -3.4974 H   0  0  0  0  0  0  0  0  0  0  0  0
   -2.8516   -4.0658   -3.6073 H   0  0  0  0  0  0  0  0  0  0  0  0
   -4.4599   -0.3700   -1.1619 H   0  0  0  0  0  0  0  0  0  0  0  0
   -4.1354    0.9372   -3.8592 H   0  0  0  0  0  0  0  0  0  0  0  0
   -3.6140    1.5395   -0.3639 H   0  0  0  0  0  0  0  0  0  0  0  0
   -3.5666    4.3845   -1.2470 H   0  0  0  0  0  0  0  0  0  0  0  0
   -1.3794    5.2264    1.7003 H   0  0  0  0  0  0  0  0  0  0  0  0
   -4.1980    5.4845    1.8858 H   0  0  0  0  0  0  0  0  0  0  0  0
   -2.9677    6.7142    2.3589 H   0  0  0  0  0  0  0  0  0  0  0  0
   -4.6835    6.5712   -0.1383 H   0  0  0  0  0  0  0  0  0  0  0  0
   -4.9053    8.2055    1.4187 H   0  0  0  0  0  0  0  0  0  0  0  0
   -2.0613    8.0211   -0.5132 H   0  0  0  0  0  0  0  0  0  0  0  0
   -2.9897    6.9517   -1.6503 H   0  0  0  0  0  0  0  0  0  0  0  0
    0.0753    4.0827    0.3330 H   0  0  0  0  0  0  0  0  0  0  0  0
    1.9413    3.6843   -1.7675 H   0  0  0  0  0  0  0  0  0  0  0  0
    2.4574    4.7717    0.4067 H   0  0  0  0  0  0  0  0  0  0  0  0
    1.6316    7.2901   -1.1668 H   0  0  0  0  0  0  0  0  0  0  0  0
    3.2383    6.8923   -0.4711 H   0  0  0  0  0  0  0  0  0  0  0  0
    2.6062    5.9288   -1.8505 H   0  0  0  0  0  0  0  0  0  0  0  0
    1.1580    5.5960    1.9585 H   0  0  0  0  0  0  0  0  0  0  0  0
   -5.1582    2.7941    1.1997 H   0  0  0  0  0  0  0  0  0  0  0  0
   -5.5040    0.6658    0.9474 H   0  0  0  0  0  0  0  0  0  0  0  0
   -6.0130    4.3169   -0.7917 H   0  0  0  0  0  0  0  0  0  0  0  0
   -8.0199    2.2857   -0.8117 H   0  0  0  0  0  0  0  0  0  0  0  0
   -7.4684    6.0261   -0.1623 H   0  0  0  0  0  0  0  0  0  0  0  0
   -7.0907    9.0575   -0.9478 H   0  0  0  0  0  0  0  0  0  0  0  0
   -9.9931    5.4180    4.6538 H   0  0  0  0  0  0  0  0  0  0  0  0
   -8.9014    3.3931    3.7832 H   0  0  0  0  0  0  0  0  0  0  0  0
   -7.5819    2.3230    2.0258 H   0  0  0  0  0  0  0  0  0  0  0  0
   -6.7045    0.2414   -1.9298 H   0  0  0  0  0  0  0  0  0  0  0  0
   -7.5737   -1.7373   -1.5822 H   0  0  0  0  0  0  0  0  0  0  0  0
   -7.8160   -0.5123   -3.8605 H   0  0  0  0  0  0  0  0  0  0  0  0
   -6.2953    0.1920   -4.4434 H   0  0  0  0  0  0  0  0  0  0  0  0
   -5.4051   -2.8874   -6.2277 H   0  0  0  0  0  0  0  0  0  0  0  0
   -5.1187   -1.1204   -6.0764 H   0  0  0  0  0  0  0  0  0  0  0  0
  1  2  1  0
  2  3  1  0
  3  4  1  0
  4  5  1  0
  5  6  1  0
  6  7  1  0
  7  8  2  0
  8  9  1  0
  9 10  2  0
 10 11  1  0
 11 12  2  0
 10 13  1  0
 13 14  2  0
 14 15  1  0
 15 16  2  0
 16 17  1  0
 15 18  1  0
 18 19  2  0
 19 20  1  0
 20 21  2  0
 21 22  1  0
 22 23  2  0
 21 24  1  0
 24 25  2  0
 24 26  1  0
 26 27  1  0
 27 28  1  0
 28 29  1  0
 29 30  1  0
 29 31  1  0
 31 32  1  0
 31 33  1  0
 33 34  1  0
 34 35  2  0
 34 36  1  0
 36 37  1  0
 37 38  1  0
 37 39  1  0
 39 40  1  0
 39 41  1  0
 41 42  1  0
 42 43  1  0
 43 44  2  0
 43 45  1  0
 45 46  1  0
 46 47  1  0
 47 48  2  0
 47 49  1  0
 49 50  1  0
 50 51  1  0
 51 52  2  0
 51 53  1  0
 53 54  1  0
 54 55  1  0
 55 56  1  0
 55 57  1  0
 57 58  1  0
 58 59  1  0
 59 60  2  0
 59 61  1  0
 61 62  1  0
 62 63  1  0
 63 64  2  0
 61 65  1  0
 65 66  1  0
 65 67  1  0
 49 68  1  0
 68 69  1  0
 68 70  1  0
 70 71  1  0
 70 72  1  0
 72 73  2  0
 73 74  1  0
 74 75  1  0
 75 76  1  0
 76 77  1  0
 76 78  2  0
 76 79  2  0
 74 80  2  0
 80 81  1  0
 80 82  1  0
 82 83  2  0
 45 84  1  0
 84 85  1  0
 84 86  1  0
 86 87  1  0
 87 88  1  0
 87 89  2  0
 12  7  1  0
 17 13  1  0
 23 18  1  0
 63 27  1  0
 83 72  1  0
 42 36  1  0
 58 53  1  0
  1 90  1  0
  1 91  1  0
  1 92  1  0
  2 93  1  0
  2 94  1  0
  3 95  1  0
  3 96  1  0
  4 97  1  0
  4 98  1  0
  5 99  1  0
  5100  1  0
  8101  1  0
  9102  1  0
 11103  1  0
 12104  1  0
 14105  1  0
 19106  1  0
 20107  1  0
 22108  1  0
 23109  1  0
 26110  1  0
 27111  1  6
 28112  1  0
 28113  1  0
 29114  1  6
 30115  1  0
 31116  1  1
 32117  1  0
 33118  1  0
 36119  1  1
 37120  1  1
 38121  1  0
 39122  1  1
 40123  1  0
 40124  1  0
 40125  1  0
 41126  1  0
 41127  1  0
 45128  1  1
 46129  1  0
 49130  1  1
 50131  1  0
 53132  1  1
 54133  1  0
 54134  1  0
 55135  1  6
 56136  1  0
 57137  1  0
 57138  1  0
 61139  1  1
 62140  1  0
 65141  1  1
 66142  1  0
 66143  1  0
 66144  1  0
 67145  1  0
 68146  1  1
 69147  1  0
 70148  1  6
 71149  1  0
 73150  1  0
 77151  1  0
 81152  1  0
 82153  1  0
 83154  1  0
 84155  1  1
 85156  1  0
 86157  1  0
 86158  1  0
 88159  1  0
 88160  1  0
M  END
$$$$
