
     RDKit          3D

 67 71  0  0  0  0  0  0  0  0999 V2000
    3.3446   -3.9683   -5.5316 C   0  0  0  0  0  0  0  0  0  0  0  0
    3.1903   -3.2133   -4.3340 O   0  0  0  0  0  0  0  0  0  0  0  0
    4.0463   -3.2865   -3.2214 C   0  0  0  0  0  0  0  0  0  0  0  0
    5.1566   -4.1524   -3.2173 C   0  0  0  0  0  0  0  0  0  0  0  0
    5.9916   -4.2279   -2.1066 C   0  0  0  0  0  0  0  0  0  0  0  0
    5.7343   -3.4478   -0.9836 C   0  0  0  0  0  0  0  0  0  0  0  0
    4.6332   -2.5743   -0.9575 C   0  0  0  0  0  0  0  0  0  0  0  0
    3.7856   -2.4824   -2.0805 C   0  0  0  0  0  0  0  0  0  0  0  0
    2.6413   -1.5329   -2.0401 C   0  0  0  0  0  0  0  0  0  0  0  0
    1.9984   -1.2944   -3.0981 O   0  0  0  0  0  0  0  0  0  0  0  0
    2.2675   -0.8401   -0.7694 C   0  0  0  0  0  0  0  0  0  0  0  0
    1.0651   -0.1010   -0.6707 C   0  0  0  0  0  0  0  0  0  0  0  0
    0.2340   -0.0182   -1.7943 O   0  0  0  0  0  0  0  0  0  0  0  0
    0.7124    0.5460    0.5406 C   0  0  0  0  0  0  0  0  0  0  0  0
    1.6394    0.5526    1.6123 C   0  0  0  0  0  0  0  0  0  0  0  0
    1.3878    1.3830    2.8573 C   0  0  0  0  0  0  0  0  0  0  0  0
    0.3271    2.4885    2.6665 C   0  0  2  0  0  0  0  0  0  0  0  0
   -0.0293    2.9983    3.9300 O   0  0  0  0  0  0  0  0  0  0  0  0
   -0.9161    1.8341    2.0549 C   0  0  0  0  0  0  0  0  0  0  0  0
   -0.6502    1.2292    0.6597 C   0  0  2  0  0  0  0  0  0  0  0  0
   -1.6511    0.2596    0.3780 O   0  0  0  0  0  0  0  0  0  0  0  0
   -2.8284    0.8304   -0.1760 C   0  0  1  0  0  0  0  0  0  0  0  0
   -3.5825   -0.2605   -0.9862 C   0  0  0  0  0  0  0  0  0  0  0  0
   -5.1128   -0.1110   -0.8706 C   0  0  2  0  0  0  0  0  0  0  0  0
   -5.5855    1.0512   -1.6336 N   0  0  0  0  0  0  0  0  0  0  0  0
   -5.5475   -0.0436    0.6240 C   0  0  2  0  0  0  0  0  0  0  0  0
   -6.7204    0.7205    0.7840 O   0  0  0  0  0  0  0  0  0  0  0  0
   -4.3826    0.4433    1.5330 C   0  0  2  0  0  0  0  0  0  0  0  0
   -4.8606    1.0134    2.8707 C   0  0  0  0  0  0  0  0  0  0  0  0
   -3.6227    1.4198    0.8494 O   0  0  0  0  0  0  0  0  0  0  0  0
    0.8189    3.6373    1.7827 C   0  0  0  0  0  0  0  0  0  0  0  0
    0.0114    4.8940    1.6291 C   0  0  0  0  0  0  0  0  0  0  0  0
    1.8705    3.5427    1.1662 O   0  0  0  0  0  0  0  0  0  0  0  0
    2.8059   -0.2425    1.5366 C   0  0  0  0  0  0  0  0  0  0  0  0
    3.6516   -0.3749    2.6453 O   0  0  0  0  0  0  0  0  0  0  0  0
    3.1274   -0.9305    0.3452 C   0  0  0  0  0  0  0  0  0  0  0  0
    4.3693   -1.7511    0.2434 C   0  0  0  0  0  0  0  0  0  0  0  0
    5.2141   -1.7508    1.1806 O   0  0  0  0  0  0  0  0  0  0  0  0
    2.5266   -3.7053   -6.2330 H   0  0  0  0  0  0  0  0  0  0  0  0
    4.3158   -3.7270   -6.0130 H   0  0  0  0  0  0  0  0  0  0  0  0
    3.2853   -5.0546   -5.3089 H   0  0  0  0  0  0  0  0  0  0  0  0
    5.3836   -4.7763   -4.0707 H   0  0  0  0  0  0  0  0  0  0  0  0
    6.8418   -4.8981   -2.1148 H   0  0  0  0  0  0  0  0  0  0  0  0
    6.3978   -3.5321   -0.1320 H   0  0  0  0  0  0  0  0  0  0  0  0
   -0.5660    0.5933   -1.8685 H   0  0  0  0  0  0  0  0  0  0  0  0
    2.3315    1.8722    3.1843 H   0  0  0  0  0  0  0  0  0  0  0  0
    1.0616    0.6972    3.6704 H   0  0  0  0  0  0  0  0  0  0  0  0
    0.7795    3.4177    4.3270 H   0  0  0  0  0  0  0  0  0  0  0  0
   -1.2786    1.0332    2.7387 H   0  0  0  0  0  0  0  0  0  0  0  0
   -1.7282    2.5885    1.9836 H   0  0  0  0  0  0  0  0  0  0  0  0
   -0.6402    2.0669   -0.0757 H   0  0  0  0  0  0  0  0  0  0  0  0
   -2.5885    1.6339   -0.9091 H   0  0  0  0  0  0  0  0  0  0  0  0
   -3.2692   -0.2311   -2.0529 H   0  0  0  0  0  0  0  0  0  0  0  0
   -3.3061   -1.2670   -0.5997 H   0  0  0  0  0  0  0  0  0  0  0  0
   -5.5792   -1.0169   -1.3195 H   0  0  0  0  0  0  0  0  0  0  0  0
   -5.3675    0.9001   -2.6455 H   0  0  0  0  0  0  0  0  0  0  0  0
   -5.0746    1.9117   -1.3314 H   0  0  0  0  0  0  0  0  0  0  0  0
   -5.7920   -1.0790    0.9497 H   0  0  0  0  0  0  0  0  0  0  0  0
   -6.4834    1.6749    0.6504 H   0  0  0  0  0  0  0  0  0  0  0  0
   -3.7422   -0.4347    1.7911 H   0  0  0  0  0  0  0  0  0  0  0  0
   -5.4068    1.9689    2.7256 H   0  0  0  0  0  0  0  0  0  0  0  0
   -5.5228    0.2844    3.3844 H   0  0  0  0  0  0  0  0  0  0  0  0
   -3.9840    1.2138    3.5230 H   0  0  0  0  0  0  0  0  0  0  0  0
    0.6220    5.7677    1.9391 H   0  0  0  0  0  0  0  0  0  0  0  0
   -0.2860    5.0155    0.5666 H   0  0  0  0  0  0  0  0  0  0  0  0
   -0.9051    4.8647    2.2542 H   0  0  0  0  0  0  0  0  0  0  0  0
    3.4396   -0.0216    3.5688 H   0  0  0  0  0  0  0  0  0  0  0  0
  1  2  1  0
  2  3  1  0
  3  4  2  0
  4  5  1  0
  5  6  2  0
  6  7  1  0
  7  8  2  0
  8  9  1  0
  9 10  2  0
  9 11  1  0
 11 12  2  0
 12 13  1  0
 12 14  1  0
 14 15  2  0
 15 16  1  0
 16 17  1  0
 17 18  1  1
 17 19  1  0
 19 20  1  0
 20 21  1  0
 21 22  1  0
 22 23  1  0
 23 24  1  0
 24 25  1  0
 24 26  1  0
 26 27  1  0
 26 28  1  0
 28 29  1  0
 28 30  1  0
 17 31  1  0
 31 32  1  0
 31 33  2  0
 15 34  1  0
 34 35  1  0
 34 36  2  0
 36 37  1  0
 37 38  2  0
  8  3  1  0
 36 11  1  0
 37  7  1  0
 20 14  1  0
 30 22  1  0
  1 39  1  0
  1 40  1  0
  1 41  1  0
  4 42  1  0
  5 43  1  0
  6 44  1  0
 13 45  1  0
 16 46  1  0
 16 47  1  0
 18 48  1  0
 19 49  1  0
 19 50  1  0
 20 51  1  6
 22 52  1  6
 23 53  1  0
 23 54  1  0
 24 55  1  6
 25 56  1  0
 25 57  1  0
 26 58  1  1
 27 59  1  0
 28 60  1  1
 29 61  1  0
 29 62  1  0
 29 63  1  0
 32 64  1  0
 32 65  1  0
 32 66  1  0
 35 67  1  0
M  END
$$$$
