
     RDKit          3D

 48 50  0  0  0  0  0  0  0  0999 V2000
    5.2631    0.1330    0.5555 C   0  0  1  0  0  0  0  0  0  0  0  0
    6.4451   -0.5964    0.3546 O   0  0  0  0  0  0  0  0  0  0  0  0
    5.3537    1.4567   -0.2143 C   0  0  0  0  0  0  0  0  0  0  0  0
    4.0186    2.1396   -0.3057 C   0  0  0  0  0  0  0  0  0  0  0  0
    3.9673    3.3700   -0.5661 O   0  0  0  0  0  0  0  0  0  0  0  0
    2.8298    1.4073   -0.2212 O   0  0  0  0  0  0  0  0  0  0  0  0
    2.7591    0.0986    0.3512 C   0  0  1  0  0  0  0  0  0  0  0  0
    1.5389   -0.6497   -0.2081 C   0  0  0  0  0  0  0  0  0  0  0  0
    0.2188    0.0227    0.2100 C   0  0  0  0  0  0  0  0  0  0  0  0
   -1.0273   -0.5674   -0.5051 C   0  0  1  0  0  0  0  0  0  0  0  0
   -1.1869   -2.1072   -0.3091 C   0  0  1  0  0  0  0  0  0  0  0  0
   -1.2798   -2.5432    1.1625 C   0  0  0  0  0  0  0  0  0  0  0  0
   -2.3968   -2.6063   -1.0555 C   0  0  0  0  0  0  0  0  0  0  0  0
   -3.5117   -1.8813   -1.1506 C   0  0  0  0  0  0  0  0  0  0  0  0
   -3.5802   -0.5133   -0.6006 C   0  0  0  0  0  0  0  0  0  0  0  0
   -4.7639    0.0987   -0.4821 C   0  0  0  0  0  0  0  0  0  0  0  0
   -4.8333    1.4595    0.1401 C   0  0  0  0  0  0  0  0  0  0  0  0
   -3.7496    2.3632   -0.4596 C   0  0  0  0  0  0  0  0  0  0  0  0
   -2.3415    1.6957   -0.5245 C   0  0  2  0  0  0  0  0  0  0  0  0
   -1.8313    1.8252   -1.8284 O   0  0  0  0  0  0  0  0  0  0  0  0
   -2.3322    0.1918   -0.0903 C   0  0  2  0  0  0  0  0  0  0  0  0
    4.0537   -0.6852    0.0783 C   0  0  0  0  0  0  0  0  0  0  0  0
    5.1471    0.3646    1.6412 H   0  0  0  0  0  0  0  0  0  0  0  0
    6.4767   -1.2918    1.0628 H   0  0  0  0  0  0  0  0  0  0  0  0
    5.7150    1.2630   -1.2476 H   0  0  0  0  0  0  0  0  0  0  0  0
    6.0841    2.1265    0.2892 H   0  0  0  0  0  0  0  0  0  0  0  0
    2.6421    0.2015    1.4534 H   0  0  0  0  0  0  0  0  0  0  0  0
    1.6068   -0.6839   -1.3178 H   0  0  0  0  0  0  0  0  0  0  0  0
    1.5589   -1.6905    0.1790 H   0  0  0  0  0  0  0  0  0  0  0  0
    0.2935    1.0991   -0.0481 H   0  0  0  0  0  0  0  0  0  0  0  0
    0.0986   -0.0399    1.3127 H   0  0  0  0  0  0  0  0  0  0  0  0
   -0.8739   -0.4165   -1.5974 H   0  0  0  0  0  0  0  0  0  0  0  0
   -0.3101   -2.6199   -0.7587 H   0  0  0  0  0  0  0  0  0  0  0  0
   -0.3517   -2.2862    1.7119 H   0  0  0  0  0  0  0  0  0  0  0  0
   -2.1469   -2.0716    1.6699 H   0  0  0  0  0  0  0  0  0  0  0  0
   -1.4021   -3.6462    1.2211 H   0  0  0  0  0  0  0  0  0  0  0  0
   -2.3781   -3.6037   -1.4777 H   0  0  0  0  0  0  0  0  0  0  0  0
   -4.3768   -2.3104   -1.6423 H   0  0  0  0  0  0  0  0  0  0  0  0
   -5.6733   -0.3707   -0.8387 H   0  0  0  0  0  0  0  0  0  0  0  0
   -4.6742    1.3675    1.2365 H   0  0  0  0  0  0  0  0  0  0  0  0
   -5.8375    1.9034   -0.0301 H   0  0  0  0  0  0  0  0  0  0  0  0
   -3.6929    3.3000    0.1365 H   0  0  0  0  0  0  0  0  0  0  0  0
   -4.0768    2.6548   -1.4826 H   0  0  0  0  0  0  0  0  0  0  0  0
   -1.6788    2.2460    0.1838 H   0  0  0  0  0  0  0  0  0  0  0  0
   -1.5451    2.7703   -1.9333 H   0  0  0  0  0  0  0  0  0  0  0  0
   -2.3926    0.1752    1.0209 H   0  0  0  0  0  0  0  0  0  0  0  0
    4.1511   -0.8994   -1.0094 H   0  0  0  0  0  0  0  0  0  0  0  0
    4.0233   -1.6531    0.6253 H   0  0  0  0  0  0  0  0  0  0  0  0
  1  2  1  0
  1  3  1  0
  3  4  1  0
  4  5  2  0
  4  6  1  0
  6  7  1  0
  7  8  1  0
  8  9  1  0
  9 10  1  0
 10 11  1  0
 11 12  1  0
 11 13  1  0
 13 14  2  0
 14 15  1  0
 15 16  2  0
 16 17  1  0
 17 18  1  0
 18 19  1  0
 19 20  1  0
 19 21  1  0
  7 22  1  0
 22  1  1  0
 21 10  1  0
 21 15  1  0
  1 23  1  1
  2 24  1  0
  3 25  1  0
  3 26  1  0
  7 27  1  1
  8 28  1  0
  8 29  1  0
  9 30  1  0
  9 31  1  0
 10 32  1  6
 11 33  1  6
 12 34  1  0
 12 35  1  0
 12 36  1  0
 13 37  1  0
 14 38  1  0
 16 39  1  0
 17 40  1  0
 17 41  1  0
 18 42  1  0
 18 43  1  0
 19 44  1  1
 20 45  1  0
 21 46  1  1
 22 47  1  0
 22 48  1  0
M  END
$$$$
