
     RDKit          3D

 23 23  0  0  0  0  0  0  0  0999 V2000
    1.1540   -0.4875   -0.2388 C   0  0  1  0  0  0  0  0  0  0  0  0
    2.6445   -0.5976    0.0885 C   0  0  0  0  0  0  0  0  0  0  0  0
    0.4662   -1.4922    0.4911 O   0  0  0  0  0  0  0  0  0  0  0  0
   -0.9162   -1.5210    0.1671 C   0  0  2  0  0  0  0  0  0  0  0  0
   -1.1166   -1.8344   -1.1891 O   0  0  0  0  0  0  0  0  0  0  0  0
   -1.6020   -0.1927    0.5315 C   0  0  2  0  0  0  0  0  0  0  0  0
   -2.9514   -0.2428    0.1447 O   0  0  0  0  0  0  0  0  0  0  0  0
   -0.8931    0.9835   -0.1586 C   0  0  1  0  0  0  0  0  0  0  0  0
   -1.4182    2.1908    0.3317 O   0  0  0  0  0  0  0  0  0  0  0  0
    0.6198    0.9178    0.1181 C   0  0  2  0  0  0  0  0  0  0  0  0
    1.2844    1.8837   -0.6570 O   0  0  0  0  0  0  0  0  0  0  0  0
    1.0506   -0.6599   -1.3351 H   0  0  0  0  0  0  0  0  0  0  0  0
    3.0085   -1.6167   -0.1620 H   0  0  0  0  0  0  0  0  0  0  0  0
    2.8198   -0.4148    1.1704 H   0  0  0  0  0  0  0  0  0  0  0  0
    3.2314    0.1355   -0.5046 H   0  0  0  0  0  0  0  0  0  0  0  0
   -1.3918   -2.3156    0.7856 H   0  0  0  0  0  0  0  0  0  0  0  0
   -0.7480   -2.7463   -1.3223 H   0  0  0  0  0  0  0  0  0  0  0  0
   -1.5303   -0.0652    1.6383 H   0  0  0  0  0  0  0  0  0  0  0  0
   -3.4282    0.4509    0.6711 H   0  0  0  0  0  0  0  0  0  0  0  0
   -1.0706    0.9077   -1.2589 H   0  0  0  0  0  0  0  0  0  0  0  0
   -1.2622    2.8793   -0.3663 H   0  0  0  0  0  0  0  0  0  0  0  0
    0.8011    1.1008    1.2051 H   0  0  0  0  0  0  0  0  0  0  0  0
    1.2480    2.7367   -0.1503 H   0  0  0  0  0  0  0  0  0  0  0  0
  1  2  1  0
  1  3  1  0
  3  4  1  0
  4  5  1  0
  4  6  1  0
  6  7  1  0
  6  8  1  0
  8  9  1  0
  8 10  1  0
 10 11  1  0
 10  1  1  0
  1 12  1  6
  2 13  1  0
  2 14  1  0
  2 15  1  0
  4 16  1  1
  5 17  1  0
  6 18  1  1
  7 19  1  0
  8 20  1  6
  9 21  1  0
 10 22  1  1
 11 23  1  0
M  END
$$$$
