
     RDKit          3D

 66 68  0  0  0  0  0  0  0  0999 V2000
    9.1784   -0.0423   -1.1007 C   0  0  0  0  0  0  0  0  0  0  0  0
    7.8320    0.5151   -0.6480 C   0  0  0  0  0  0  0  0  0  0  0  0
    6.7226   -0.5337   -0.7891 C   0  0  0  0  0  0  0  0  0  0  0  0
    5.3699    0.0312   -0.3370 C   0  0  0  0  0  0  0  0  0  0  0  0
    4.2655   -1.0321   -0.4293 C   0  0  0  0  0  0  0  0  0  0  0  0
    2.8314   -0.4557   -0.4540 C   0  0  0  0  0  0  0  0  0  0  0  0
    2.2708    0.2319    0.8391 C   0  0  0  0  0  0  0  0  0  0  0  0
    2.6624   -0.5815    2.0993 C   0  0  0  0  0  0  0  0  0  0  0  0
    2.8361    1.6659    1.0106 C   0  0  0  0  0  0  0  0  0  0  0  0
    0.7356    0.3390    0.6699 C   0  0  0  0  0  0  0  0  0  0  0  0
    0.2066    1.1432   -0.3611 C   0  0  0  0  0  0  0  0  0  0  0  0
   -1.1708    1.2549   -0.5721 C   0  0  0  0  0  0  0  0  0  0  0  0
   -1.6091    2.2021   -1.4987 O   0  0  0  0  0  0  0  0  0  0  0  0
   -2.0668    0.4568    0.1767 C   0  0  0  0  0  0  0  0  0  0  0  0
   -3.5611    0.3871   -0.1435 C   0  0  1  0  0  0  0  0  0  0  0  0
   -3.8327   -0.0450   -1.6059 C   0  0  0  0  0  0  0  0  0  0  0  0
   -5.3174   -0.2045   -1.8900 C   0  0  0  0  0  0  0  0  0  0  0  0
   -5.7856   -0.2229   -3.3244 C   0  0  0  0  0  0  0  0  0  0  0  0
   -6.5547    0.9172   -3.5971 O   0  0  0  0  0  0  0  0  0  0  0  0
   -6.2080   -0.4428   -0.8996 C   0  0  0  0  0  0  0  0  0  0  0  0
   -5.8377   -0.4246    0.5649 C   0  0  0  0  0  0  0  0  0  0  0  0
   -4.3210   -0.6198    0.7637 C   0  0  2  0  0  0  0  0  0  0  0  0
   -3.8271   -0.5764    2.2374 C   0  0  0  0  0  0  0  0  0  0  0  0
   -4.4844   -1.6855    3.0774 C   0  0  0  0  0  0  0  0  0  0  0  0
   -4.0790    0.7854    2.9191 C   0  0  0  0  0  0  0  0  0  0  0  0
   -2.4221   -0.8317    2.2215 O   0  0  0  0  0  0  0  0  0  0  0  0
   -1.5584   -0.2410    1.2918 C   0  0  0  0  0  0  0  0  0  0  0  0
   -0.1812   -0.3356    1.5055 C   0  0  0  0  0  0  0  0  0  0  0  0
    9.1314   -0.3451   -2.1685 H   0  0  0  0  0  0  0  0  0  0  0  0
    9.4600   -0.9208   -0.4819 H   0  0  0  0  0  0  0  0  0  0  0  0
    9.9607    0.7375   -0.9869 H   0  0  0  0  0  0  0  0  0  0  0  0
    7.9141    0.8341    0.4140 H   0  0  0  0  0  0  0  0  0  0  0  0
    7.5859    1.4065   -1.2654 H   0  0  0  0  0  0  0  0  0  0  0  0
    6.6529   -0.8513   -1.8530 H   0  0  0  0  0  0  0  0  0  0  0  0
    6.9751   -1.4229   -0.1698 H   0  0  0  0  0  0  0  0  0  0  0  0
    5.4716    0.3600    0.7165 H   0  0  0  0  0  0  0  0  0  0  0  0
    5.1095    0.9063   -0.9719 H   0  0  0  0  0  0  0  0  0  0  0  0
    4.3959   -1.5927   -1.3816 H   0  0  0  0  0  0  0  0  0  0  0  0
    4.3827   -1.7787    0.3839 H   0  0  0  0  0  0  0  0  0  0  0  0
    2.1658   -1.3150   -0.6963 H   0  0  0  0  0  0  0  0  0  0  0  0
    2.7499    0.2381   -1.3191 H   0  0  0  0  0  0  0  0  0  0  0  0
    2.2034   -0.1396    3.0100 H   0  0  0  0  0  0  0  0  0  0  0  0
    2.3439   -1.6416    2.0003 H   0  0  0  0  0  0  0  0  0  0  0  0
    3.7598   -0.5691    2.2651 H   0  0  0  0  0  0  0  0  0  0  0  0
    3.8607    1.6689    1.4283 H   0  0  0  0  0  0  0  0  0  0  0  0
    2.2071    2.2443    1.7220 H   0  0  0  0  0  0  0  0  0  0  0  0
    2.8641    2.2153    0.0465 H   0  0  0  0  0  0  0  0  0  0  0  0
    0.8653    1.7193   -0.9970 H   0  0  0  0  0  0  0  0  0  0  0  0
   -2.5617    2.5419   -1.5258 H   0  0  0  0  0  0  0  0  0  0  0  0
   -3.9847    1.4047    0.0098 H   0  0  0  0  0  0  0  0  0  0  0  0
   -3.4200    0.6855   -2.3258 H   0  0  0  0  0  0  0  0  0  0  0  0
   -3.3301   -1.0163   -1.8079 H   0  0  0  0  0  0  0  0  0  0  0  0
   -6.3644   -1.1530   -3.5297 H   0  0  0  0  0  0  0  0  0  0  0  0
   -4.9133   -0.2269   -4.0117 H   0  0  0  0  0  0  0  0  0  0  0  0
   -7.4780    0.7219   -3.2891 H   0  0  0  0  0  0  0  0  0  0  0  0
   -7.2574   -0.5795   -1.1457 H   0  0  0  0  0  0  0  0  0  0  0  0
   -6.3976   -1.2384    1.0702 H   0  0  0  0  0  0  0  0  0  0  0  0
   -6.1674    0.5460    0.9893 H   0  0  0  0  0  0  0  0  0  0  0  0
   -4.0817   -1.6479    0.4003 H   0  0  0  0  0  0  0  0  0  0  0  0
   -4.3596   -2.6738    2.5854 H   0  0  0  0  0  0  0  0  0  0  0  0
   -4.0059   -1.7392    4.0789 H   0  0  0  0  0  0  0  0  0  0  0  0
   -5.5674   -1.4915    3.2267 H   0  0  0  0  0  0  0  0  0  0  0  0
   -3.6329    0.7856    3.9367 H   0  0  0  0  0  0  0  0  0  0  0  0
   -3.6111    1.6156    2.3516 H   0  0  0  0  0  0  0  0  0  0  0  0
   -5.1649    0.9894    3.0228 H   0  0  0  0  0  0  0  0  0  0  0  0
    0.1444   -0.9323    2.3441 H   0  0  0  0  0  0  0  0  0  0  0  0
  1  2  1  0
  2  3  1  0
  3  4  1  0
  4  5  1  0
  5  6  1  0
  6  7  1  0
  7  8  1  0
  7  9  1  0
  7 10  1  0
 10 11  2  0
 11 12  1  0
 12 13  1  0
 12 14  2  0
 14 15  1  0
 15 16  1  0
 16 17  1  0
 17 18  1  0
 18 19  1  0
 17 20  2  0
 20 21  1  0
 21 22  1  0
 22 23  1  0
 23 24  1  0
 23 25  1  0
 23 26  1  0
 26 27  1  0
 27 28  2  0
 28 10  1  0
 27 14  1  0
 22 15  1  0
  1 29  1  0
  1 30  1  0
  1 31  1  0
  2 32  1  0
  2 33  1  0
  3 34  1  0
  3 35  1  0
  4 36  1  0
  4 37  1  0
  5 38  1  0
  5 39  1  0
  6 40  1  0
  6 41  1  0
  8 42  1  0
  8 43  1  0
  8 44  1  0
  9 45  1  0
  9 46  1  0
  9 47  1  0
 11 48  1  0
 13 49  1  0
 15 50  1  6
 16 51  1  0
 16 52  1  0
 18 53  1  0
 18 54  1  0
 19 55  1  0
 20 56  1  0
 21 57  1  0
 21 58  1  0
 22 59  1  6
 24 60  1  0
 24 61  1  0
 24 62  1  0
 25 63  1  0
 25 64  1  0
 25 65  1  0
 28 66  1  0
M  END
$$$$
