
     RDKit          3D

 60 64  0  0  0  0  0  0  0  0999 V2000
    0.8692    0.5829    0.2983 C   0  0  1  0  0  0  0  0  0  0  0  0
    0.1832    1.8908   -0.2348 C   0  0  0  0  0  0  0  0  0  0  0  0
   -0.5164    1.7516   -1.6036 C   0  0  0  0  0  0  0  0  0  0  0  0
   -1.4388    0.4870   -1.7731 C   0  0  2  0  0  0  0  0  0  0  0  0
   -1.2915    0.0014   -3.2426 C   0  0  0  0  0  0  0  0  0  0  0  0
   -2.9127    0.7597   -1.5557 C   0  0  0  0  0  0  0  0  0  0  0  0
   -3.3693    1.9325   -1.6447 O   0  0  0  0  0  0  0  0  0  0  0  0
   -3.8057   -0.3570   -1.3224 N   0  0  0  0  0  0  0  0  0  0  0  0
   -5.2413   -0.1168   -1.1151 C   0  0  0  0  0  0  0  0  0  0  0  0
   -5.5107    0.1803    0.3354 C   0  0  0  0  0  0  0  0  0  0  0  0
   -5.6555   -0.8628    1.2616 C   0  0  0  0  0  0  0  0  0  0  0  0
   -5.8643   -0.5747    2.6114 C   0  0  0  0  0  0  0  0  0  0  0  0
   -5.9201    0.7571    3.0257 C   0  0  0  0  0  0  0  0  0  0  0  0
   -5.7698    1.7589    2.1192 N   0  0  0  0  0  0  0  0  0  0  0  0
   -5.5656    1.5040    0.7990 C   0  0  0  0  0  0  0  0  0  0  0  0
   -3.2669   -1.6979   -1.1796 C   0  0  0  0  0  0  0  0  0  0  0  0
   -4.0379   -2.6953   -1.1897 O   0  0  0  0  0  0  0  0  0  0  0  0
   -1.7820   -1.9402   -1.0291 C   0  0  0  0  0  0  0  0  0  0  0  0
   -1.0619   -0.6139   -0.7321 C   0  0  1  0  0  0  0  0  0  0  0  0
    0.4759   -0.6542   -0.5515 C   0  0  2  0  0  0  0  0  0  0  0  0
    1.0359   -1.9158    0.1154 C   0  0  0  0  0  0  0  0  0  0  0  0
    2.5691   -1.8774    0.0661 C   0  0  0  0  0  0  0  0  0  0  0  0
    3.1592   -0.5372    0.4582 C   0  0  0  0  0  0  0  0  0  0  0  0
    2.3779    0.6485    0.5212 C   0  0  0  0  0  0  0  0  0  0  0  0
    2.9831    1.8194    1.0203 C   0  0  0  0  0  0  0  0  0  0  0  0
    4.3496    1.8563    1.2990 C   0  0  0  0  0  0  0  0  0  0  0  0
    5.1405    0.7184    1.1412 C   0  0  0  0  0  0  0  0  0  0  0  0
    6.5105    0.8220    1.4217 O   0  0  0  0  0  0  0  0  0  0  0  0
    7.6358   -0.4600    1.2861 S   0  0  0  0  0  6  0  0  0  0  0  0
    9.2066    0.1207    1.7127 N   0  0  0  0  0  0  0  0  0  0  0  0
    7.2512   -1.5749    2.2178 O   0  0  0  0  0  0  0  0  0  0  0  0
    7.6594   -0.9691   -0.1281 O   0  0  0  0  0  0  0  0  0  0  0  0
    4.5367   -0.4804    0.7274 C   0  0  0  0  0  0  0  0  0  0  0  0
    0.4539    0.4221    1.3202 H   0  0  0  0  0  0  0  0  0  0  0  0
    0.9018    2.7273   -0.3349 H   0  0  0  0  0  0  0  0  0  0  0  0
   -0.5822    2.2198    0.5025 H   0  0  0  0  0  0  0  0  0  0  0  0
   -1.0670    2.6898   -1.8266 H   0  0  0  0  0  0  0  0  0  0  0  0
    0.3052    1.7185   -2.3547 H   0  0  0  0  0  0  0  0  0  0  0  0
   -2.0198   -0.7954   -3.5018 H   0  0  0  0  0  0  0  0  0  0  0  0
   -1.4796    0.8447   -3.9424 H   0  0  0  0  0  0  0  0  0  0  0  0
   -0.2722   -0.3874   -3.4436 H   0  0  0  0  0  0  0  0  0  0  0  0
   -5.5889    0.7239   -1.7546 H   0  0  0  0  0  0  0  0  0  0  0  0
   -5.8380   -0.9975   -1.4369 H   0  0  0  0  0  0  0  0  0  0  0  0
   -5.6072   -1.8953    0.9402 H   0  0  0  0  0  0  0  0  0  0  0  0
   -5.9795   -1.3759    3.3299 H   0  0  0  0  0  0  0  0  0  0  0  0
   -6.0807    0.9948    4.0688 H   0  0  0  0  0  0  0  0  0  0  0  0
   -5.4477    2.3326    0.1133 H   0  0  0  0  0  0  0  0  0  0  0  0
   -1.3761   -2.4204   -1.9442 H   0  0  0  0  0  0  0  0  0  0  0  0
   -1.6350   -2.6409   -0.1793 H   0  0  0  0  0  0  0  0  0  0  0  0
   -1.4811   -0.3067    0.2583 H   0  0  0  0  0  0  0  0  0  0  0  0
    0.9597   -0.5787   -1.5505 H   0  0  0  0  0  0  0  0  0  0  0  0
    0.7030   -2.8256   -0.4272 H   0  0  0  0  0  0  0  0  0  0  0  0
    0.6867   -1.9885    1.1691 H   0  0  0  0  0  0  0  0  0  0  0  0
    2.9618   -2.6713    0.7383 H   0  0  0  0  0  0  0  0  0  0  0  0
    2.9039   -2.1151   -0.9673 H   0  0  0  0  0  0  0  0  0  0  0  0
    2.4046    2.7082    1.2279 H   0  0  0  0  0  0  0  0  0  0  0  0
    4.7954    2.7756    1.6577 H   0  0  0  0  0  0  0  0  0  0  0  0
    9.4443    0.8799    1.0357 H   0  0  0  0  0  0  0  0  0  0  0  0
    9.8790   -0.6598    1.5395 H   0  0  0  0  0  0  0  0  0  0  0  0
    5.1226   -1.3830    0.6272 H   0  0  0  0  0  0  0  0  0  0  0  0
  1  2  1  0
  2  3  1  0
  3  4  1  0
  4  5  1  6
  4  6  1  0
  6  7  2  0
  6  8  1  0
  8  9  1  0
  9 10  1  0
 10 11  2  0
 11 12  1  0
 12 13  2  0
 13 14  1  0
 14 15  2  0
  8 16  1  0
 16 17  2  0
 16 18  1  0
 18 19  1  0
 19 20  1  0
 20 21  1  0
 21 22  1  0
 22 23  1  0
 23 24  2  0
 24 25  1  0
 25 26  2  0
 26 27  1  0
 27 28  1  0
 28 29  1  0
 29 30  1  0
 29 31  2  0
 29 32  2  0
 27 33  2  0
 20  1  1  0
 33 23  1  0
 24  1  1  0
 19  4  1  0
 15 10  1  0
  1 34  1  1
  2 35  1  0
  2 36  1  0
  3 37  1  0
  3 38  1  0
  5 39  1  0
  5 40  1  0
  5 41  1  0
  9 42  1  0
  9 43  1  0
 11 44  1  0
 12 45  1  0
 13 46  1  0
 15 47  1  0
 18 48  1  0
 18 49  1  0
 19 50  1  1
 20 51  1  6
 21 52  1  0
 21 53  1  0
 22 54  1  0
 22 55  1  0
 25 56  1  0
 26 57  1  0
 30 58  1  0
 30 59  1  0
 33 60  1  0
M  END
$$$$
