
     RDKit          3D

 57 60  0  0  0  0  0  0  0  0999 V2000
   -1.1812    1.4602   -1.0126 N   0  0  0  0  0  0  0  0  0  0  0  0
    0.1930    1.7536   -0.7090 C   0  0  0  0  0  0  0  0  0  0  0  0
    0.9973    0.8447   -0.0005 C   0  0  0  0  0  0  0  0  0  0  0  0
    2.3384    1.1407    0.2612 C   0  0  0  0  0  0  0  0  0  0  0  0
    2.9034    2.3458   -0.1994 C   0  0  0  0  0  0  0  0  0  0  0  0
    4.2431    2.6976    0.0347 O   0  0  0  0  0  0  0  0  0  0  0  0
    5.2265    1.8610    0.6455 C   0  0  0  0  0  0  0  0  0  0  0  0
    5.7050    0.7722   -0.3303 C   0  0  1  0  0  0  0  0  0  0  0  0
    6.3288    1.3691   -1.4383 O   0  0  0  0  0  0  0  0  0  0  0  0
    6.7032   -0.1680    0.3649 C   0  0  0  0  0  0  0  0  0  0  0  0
    7.2078   -1.1922   -0.5776 N   0  0  0  0  0  0  0  0  0  0  0  0
    6.2854   -2.3391   -0.6594 C   0  0  0  0  0  0  0  0  0  0  0  0
    8.5361   -1.6650   -0.1546 C   0  0  0  0  0  0  0  0  0  0  0  0
    2.1037    3.2394   -0.9205 C   0  0  0  0  0  0  0  0  0  0  0  0
    0.7633    2.9431   -1.1825 C   0  0  0  0  0  0  0  0  0  0  0  0
   -2.0717    0.7633   -0.1297 C   0  0  0  0  0  0  0  0  0  0  0  0
   -1.7494    0.5704    1.1783 N   0  0  0  0  0  0  0  0  0  0  0  0
   -2.5987   -0.0700    2.0216 C   0  0  0  0  0  0  0  0  0  0  0  0
   -3.8283   -0.5305    1.5544 C   0  0  0  0  0  0  0  0  0  0  0  0
   -4.1641   -0.3014    0.2150 C   0  0  0  0  0  0  0  0  0  0  0  0
   -3.2746    0.3328   -0.5950 N   0  0  0  0  0  0  0  0  0  0  0  0
   -5.4449   -0.7789   -0.3451 C   0  0  0  0  0  0  0  0  0  0  0  0
   -5.6278   -1.4139   -1.5682 C   0  0  0  0  0  0  0  0  0  0  0  0
   -4.5657   -1.7332   -2.5707 C   0  0  0  0  0  0  0  0  0  0  0  0
   -6.9370   -1.7050   -1.7537 N   0  0  0  0  0  0  0  0  0  0  0  0
   -7.5230   -1.2372   -0.6326 C   0  0  0  0  0  0  0  0  0  0  0  0
   -8.8883   -1.2809   -0.3566 C   0  0  0  0  0  0  0  0  0  0  0  0
   -9.3318   -0.7037    0.8428 C   0  0  0  0  0  0  0  0  0  0  0  0
   -8.4150   -0.0934    1.7182 C   0  0  0  0  0  0  0  0  0  0  0  0
   -7.0519   -0.0754    1.3898 C   0  0  0  0  0  0  0  0  0  0  0  0
   -6.6581   -0.6710    0.2308 N   0  0  0  0  0  0  0  0  0  0  0  0
   -1.5829    1.8442   -1.8980 H   0  0  0  0  0  0  0  0  0  0  0  0
    0.5984   -0.1050    0.3304 H   0  0  0  0  0  0  0  0  0  0  0  0
    2.9233    0.4209    0.8155 H   0  0  0  0  0  0  0  0  0  0  0  0
    6.0921    2.4974    0.9286 H   0  0  0  0  0  0  0  0  0  0  0  0
    4.8274    1.4182    1.5832 H   0  0  0  0  0  0  0  0  0  0  0  0
    4.8277    0.1765   -0.6645 H   0  0  0  0  0  0  0  0  0  0  0  0
    5.6061    1.6769   -2.0457 H   0  0  0  0  0  0  0  0  0  0  0  0
    6.2279   -0.6409    1.2551 H   0  0  0  0  0  0  0  0  0  0  0  0
    7.5425    0.4605    0.7434 H   0  0  0  0  0  0  0  0  0  0  0  0
    5.2875   -2.0155   -1.0192 H   0  0  0  0  0  0  0  0  0  0  0  0
    6.1703   -2.8387    0.3285 H   0  0  0  0  0  0  0  0  0  0  0  0
    6.6637   -3.0819   -1.3944 H   0  0  0  0  0  0  0  0  0  0  0  0
    9.2656   -0.8272   -0.1821 H   0  0  0  0  0  0  0  0  0  0  0  0
    8.9116   -2.4424   -0.8548 H   0  0  0  0  0  0  0  0  0  0  0  0
    8.5039   -2.0869    0.8751 H   0  0  0  0  0  0  0  0  0  0  0  0
    2.5256    4.1677   -1.2845 H   0  0  0  0  0  0  0  0  0  0  0  0
    0.1640    3.6468   -1.7466 H   0  0  0  0  0  0  0  0  0  0  0  0
   -2.3159   -0.2271    3.0538 H   0  0  0  0  0  0  0  0  0  0  0  0
   -4.4904   -1.0715    2.2182 H   0  0  0  0  0  0  0  0  0  0  0  0
   -3.6994   -2.2096   -2.0656 H   0  0  0  0  0  0  0  0  0  0  0  0
   -4.2341   -0.8001   -3.0715 H   0  0  0  0  0  0  0  0  0  0  0  0
   -4.9611   -2.4331   -3.3365 H   0  0  0  0  0  0  0  0  0  0  0  0
   -9.5860   -1.7366   -1.0475 H   0  0  0  0  0  0  0  0  0  0  0  0
  -10.3855   -0.7167    1.0894 H   0  0  0  0  0  0  0  0  0  0  0  0
   -8.7606    0.3678    2.6342 H   0  0  0  0  0  0  0  0  0  0  0  0
   -6.3452    0.4213    2.0400 H   0  0  0  0  0  0  0  0  0  0  0  0
  1  2  1  0
  2  3  2  0
  3  4  1  0
  4  5  2  0
  5  6  1  0
  6  7  1  0
  7  8  1  0
  8  9  1  0
  8 10  1  0
 10 11  1  0
 11 12  1  0
 11 13  1  0
  5 14  1  0
 14 15  2  0
  1 16  1  0
 16 17  2  0
 17 18  1  0
 18 19  2  0
 19 20  1  0
 20 21  2  0
 20 22  1  0
 22 23  2  0
 23 24  1  0
 23 25  1  0
 25 26  2  0
 26 27  1  0
 27 28  2  0
 28 29  1  0
 29 30  2  0
 30 31  1  0
 15  2  1  0
 21 16  1  0
 31 22  1  0
 31 26  1  0
  1 32  1  0
  3 33  1  0
  4 34  1  0
  7 35  1  0
  7 36  1  0
  8 37  1  6
  9 38  1  0
 10 39  1  0
 10 40  1  0
 12 41  1  0
 12 42  1  0
 12 43  1  0
 13 44  1  0
 13 45  1  0
 13 46  1  0
 14 47  1  0
 15 48  1  0
 18 49  1  0
 19 50  1  0
 24 51  1  0
 24 52  1  0
 24 53  1  0
 27 54  1  0
 28 55  1  0
 29 56  1  0
 30 57  1  0
M  END
$$$$
