
     RDKit          3D

 50 51  0  0  0  0  0  0  0  0999 V2000
    3.1224    0.8544   -0.3659 C   0  0  1  0  0  0  0  0  0  0  0  0
    4.4579    1.2758   -0.4322 O   0  0  0  0  0  0  0  0  0  0  0  0
    2.5493    1.3024    0.8491 O   0  0  0  0  0  0  0  0  0  0  0  0
    1.2855    0.6918    1.1053 C   0  0  2  0  0  0  0  0  0  0  0  0
    1.4597   -0.5548    1.9829 C   0  0  0  0  0  0  0  0  0  0  0  0
    2.1899   -0.2128    3.1369 O   0  0  0  0  0  0  0  0  0  0  0  0
    2.3602   -1.5990    4.0969 S   0  0  0  0  0  6  0  0  0  0  0  0
    3.2294   -1.1954    5.4759 O   0  0  0  0  0  1  0  0  0  0  0  0
    1.0109   -2.1193    4.5083 O   0  0  0  0  0  0  0  0  0  0  0  0
    3.1078   -2.6660    3.3465 O   0  0  0  0  0  0  0  0  0  0  0  0
    0.4472    0.3887   -0.1739 C   0  0  1  0  0  0  0  0  0  0  0  0
   -0.9341    0.4879    0.1397 O   0  0  0  0  0  0  0  0  0  0  0  0
   -1.5941   -0.7547   -0.0007 C   0  0  2  0  0  0  0  0  0  0  0  0
   -1.8063   -1.0293   -1.3883 O   0  0  0  0  0  0  0  0  0  0  0  0
   -2.8150   -1.8864   -1.8517 C   0  0  0  0  0  0  0  0  0  0  0  0
   -3.7542   -2.3421   -1.0079 C   0  0  0  0  0  0  0  0  0  0  0  0
   -3.7148   -2.0007    0.4624 C   0  0  2  0  0  0  0  0  0  0  0  0
   -5.0171   -1.9245    0.9844 O   0  0  0  0  0  0  0  0  0  0  0  0
   -2.9430   -0.6906    0.7283 C   0  0  1  0  0  0  0  0  0  0  0  0
   -2.7113   -0.5695    2.1193 O   0  0  0  0  0  0  0  0  0  0  0  0
   -3.3153    0.9085    2.6897 S   0  0  0  0  0  6  0  0  0  0  0  0
   -2.6374    2.1870    1.8347 O   0  0  0  0  0  1  0  0  0  0  0  0
   -2.9582    1.0512    4.1417 O   0  0  0  0  0  0  0  0  0  0  0  0
   -4.8114    0.9405    2.5470 O   0  0  0  0  0  0  0  0  0  0  0  0
   -2.8348   -2.2431   -3.2803 C   0  0  0  0  0  0  0  0  0  0  0  0
   -3.8205   -3.0770   -3.7965 O   0  0  0  0  0  1  0  0  0  0  0  0
   -1.9478   -1.7887   -4.0496 O   0  0  0  0  0  0  0  0  0  0  0  0
    0.7929    1.4268   -1.2497 C   0  0  2  0  0  0  0  0  0  0  0  0
    0.0419    1.1701   -2.4084 O   0  0  0  0  0  0  0  0  0  0  0  0
    2.3083    1.3983   -1.5775 C   0  0  1  0  0  0  0  0  0  0  0  0
    2.7187    2.7592   -1.9779 N   0  0  0  0  0  0  0  0  0  0  0  0
    3.7580    2.7375   -3.3729 S   0  0  0  0  0  6  0  0  0  0  0  0
    5.0053    1.6308   -3.1667 O   0  0  0  0  0  1  0  0  0  0  0  0
    4.3425    4.1064   -3.5763 O   0  0  0  0  0  0  0  0  0  0  0  0
    2.9559    2.3593   -4.5861 O   0  0  0  0  0  0  0  0  0  0  0  0
    3.1203   -0.2617   -0.4078 H   0  0  0  0  0  0  0  0  0  0  0  0
    4.9334    0.8227    0.3122 H   0  0  0  0  0  0  0  0  0  0  0  0
    0.7070    1.4275    1.7079 H   0  0  0  0  0  0  0  0  0  0  0  0
    0.4504   -0.9283    2.2656 H   0  0  0  0  0  0  0  0  0  0  0  0
    1.9932   -1.3390    1.4014 H   0  0  0  0  0  0  0  0  0  0  0  0
    0.7416   -0.6101   -0.5847 H   0  0  0  0  0  0  0  0  0  0  0  0
   -1.0052   -1.5878    0.4515 H   0  0  0  0  0  0  0  0  0  0  0  0
   -4.5290   -3.0141   -1.3575 H   0  0  0  0  0  0  0  0  0  0  0  0
   -3.1896   -2.8333    0.9795 H   0  0  0  0  0  0  0  0  0  0  0  0
   -5.4957   -1.2063    0.4924 H   0  0  0  0  0  0  0  0  0  0  0  0
   -3.5287    0.1517    0.2861 H   0  0  0  0  0  0  0  0  0  0  0  0
    0.5138    2.4297   -0.8445 H   0  0  0  0  0  0  0  0  0  0  0  0
    0.1014    1.9846   -2.9729 H   0  0  0  0  0  0  0  0  0  0  0  0
    2.4567    0.6788   -2.4161 H   0  0  0  0  0  0  0  0  0  0  0  0
    3.2017    3.2634   -1.1993 H   0  0  0  0  0  0  0  0  0  0  0  0
  1  2  1  0
  1  3  1  0
  3  4  1  0
  4  5  1  0
  5  6  1  0
  6  7  1  0
  7  8  1  0
  7  9  2  0
  7 10  2  0
  4 11  1  0
 11 12  1  0
 12 13  1  0
 13 14  1  0
 14 15  1  0
 15 16  2  0
 16 17  1  0
 17 18  1  0
 17 19  1  0
 19 20  1  0
 20 21  1  0
 21 22  1  0
 21 23  2  0
 21 24  2  0
 15 25  1  0
 25 26  1  0
 25 27  2  0
 11 28  1  0
 28 29  1  0
 28 30  1  0
 30 31  1  0
 31 32  1  0
 32 33  1  0
 32 34  2  0
 32 35  2  0
 30  1  1  0
 19 13  1  0
  1 36  1  1
  2 37  1  0
  4 38  1  1
  5 39  1  0
  5 40  1  0
 11 41  1  6
 13 42  1  1
 16 43  1  0
 17 44  1  1
 18 45  1  0
 19 46  1  6
 28 47  1  1
 29 48  1  0
 30 49  1  6
 31 50  1  0
M  CHG  4   8  -1  22  -1  26  -1  33  -1
M  END
$$$$
