
     RDKit          3D

 45 47  0  0  0  0  0  0  0  0999 V2000
   -3.2500    0.8548   -2.5811 C   0  0  0  0  0  0  0  0  0  0  0  0
   -3.5130   -0.5110   -1.9556 C   0  0  0  0  0  0  0  0  0  0  0  0
   -4.0414   -0.3662   -0.5510 C   0  0  0  0  0  0  0  0  0  0  0  0
   -3.1921   -0.2197    0.5700 C   0  0  0  0  0  0  0  0  0  0  0  0
   -3.7905   -0.0394    1.8351 C   0  0  0  0  0  0  0  0  0  0  0  0
   -3.0057    0.0967    3.0252 N   0  0  0  0  0  0  0  0  0  0  0  0
   -5.1446   -0.0036    1.9376 N   0  0  0  0  0  0  0  0  0  0  0  0
   -5.9418   -0.1362    0.8484 C   0  0  0  0  0  0  0  0  0  0  0  0
   -7.3593   -0.0887    0.9914 N   0  0  0  0  0  0  0  0  0  0  0  0
   -5.3887   -0.3105   -0.3777 N   0  0  0  0  0  0  0  0  0  0  0  0
   -1.7216   -0.2441    0.4275 C   0  0  0  0  0  0  0  0  0  0  0  0
   -1.0464   -1.4633    0.2861 C   0  0  0  0  0  0  0  0  0  0  0  0
    0.3449   -1.4855    0.1583 C   0  0  0  0  0  0  0  0  0  0  0  0
    1.0836   -0.2912    0.1755 C   0  0  0  0  0  0  0  0  0  0  0  0
    2.5162   -0.3475    0.0404 N   0  0  0  0  0  0  0  0  0  0  0  0
    3.3704    0.8419    0.0440 C   0  0  0  0  0  0  0  0  0  0  0  0
    4.8165    0.4572   -0.1187 C   0  0  0  0  0  0  0  0  0  0  0  0
    5.3748    0.3279   -1.4012 C   0  0  0  0  0  0  0  0  0  0  0  0
    6.7083   -0.0662   -1.5522 C   0  0  0  0  0  0  0  0  0  0  0  0
    7.2438   -0.1832   -2.7923 F   0  0  0  0  0  0  0  0  0  0  0  0
    7.4881   -0.3446   -0.4257 C   0  0  0  0  0  0  0  0  0  0  0  0
    6.9344   -0.2340    0.8532 C   0  0  0  0  0  0  0  0  0  0  0  0
    7.6891   -0.5136    1.9444 F   0  0  0  0  0  0  0  0  0  0  0  0
    5.6012    0.1599    1.0078 C   0  0  0  0  0  0  0  0  0  0  0  0
    0.3996    0.9312    0.3264 C   0  0  0  0  0  0  0  0  0  0  0  0
   -0.9921    0.9517    0.4542 C   0  0  0  0  0  0  0  0  0  0  0  0
   -2.8870    0.7228   -3.6221 H   0  0  0  0  0  0  0  0  0  0  0  0
   -2.4772    1.4050   -2.0049 H   0  0  0  0  0  0  0  0  0  0  0  0
   -4.1850    1.4545   -2.6038 H   0  0  0  0  0  0  0  0  0  0  0  0
   -2.5836   -1.1167   -1.9753 H   0  0  0  0  0  0  0  0  0  0  0  0
   -4.2614   -1.0502   -2.5761 H   0  0  0  0  0  0  0  0  0  0  0  0
   -3.4784    0.2402    3.9451 H   0  0  0  0  0  0  0  0  0  0  0  0
   -1.9638    0.0389    3.0154 H   0  0  0  0  0  0  0  0  0  0  0  0
   -7.7915    0.0466    1.9323 H   0  0  0  0  0  0  0  0  0  0  0  0
   -7.9785   -0.1886    0.1566 H   0  0  0  0  0  0  0  0  0  0  0  0
   -1.5986   -2.3951    0.2726 H   0  0  0  0  0  0  0  0  0  0  0  0
    0.8490   -2.4372    0.0461 H   0  0  0  0  0  0  0  0  0  0  0  0
    2.9633   -1.2876   -0.0665 H   0  0  0  0  0  0  0  0  0  0  0  0
    3.2356    1.3923    1.0006 H   0  0  0  0  0  0  0  0  0  0  0  0
    3.0682    1.5179   -0.7852 H   0  0  0  0  0  0  0  0  0  0  0  0
    4.7769    0.5310   -2.2812 H   0  0  0  0  0  0  0  0  0  0  0  0
    8.5196   -0.6509   -0.5441 H   0  0  0  0  0  0  0  0  0  0  0  0
    5.1797    0.2322    2.0029 H   0  0  0  0  0  0  0  0  0  0  0  0
    0.9317    1.8722    0.3472 H   0  0  0  0  0  0  0  0  0  0  0  0
   -1.5031    1.8997    0.5704 H   0  0  0  0  0  0  0  0  0  0  0  0
  1  2  1  0
  2  3  1  0
  3  4  2  0
  4  5  1  0
  5  6  1  0
  5  7  2  0
  7  8  1  0
  8  9  1  0
  8 10  2  0
  4 11  1  0
 11 12  2  0
 12 13  1  0
 13 14  2  0
 14 15  1  0
 15 16  1  0
 16 17  1  0
 17 18  2  0
 18 19  1  0
 19 20  1  0
 19 21  2  0
 21 22  1  0
 22 23  1  0
 22 24  2  0
 14 25  1  0
 25 26  2  0
 10  3  1  0
 26 11  1  0
 24 17  1  0
  1 27  1  0
  1 28  1  0
  1 29  1  0
  2 30  1  0
  2 31  1  0
  6 32  1  0
  6 33  1  0
  9 34  1  0
  9 35  1  0
 12 36  1  0
 13 37  1  0
 15 38  1  0
 16 39  1  0
 16 40  1  0
 18 41  1  0
 21 42  1  0
 24 43  1  0
 25 44  1  0
 26 45  1  0
M  END
$$$$
