
     RDKit          3D

 74 76  0  0  0  0  0  0  0  0999 V2000
   -1.7030    4.5336   -1.1103 C   0  0  0  0  0  0  0  0  0  0  0  0
   -1.9820    3.1703   -0.8853 O   0  0  0  0  0  0  0  0  0  0  0  0
   -1.8097    2.8734    0.4852 C   0  0  0  0  0  0  0  0  0  0  0  0
   -2.3604    1.4780    0.7819 C   0  0  0  0  0  0  0  0  0  0  0  0
   -3.8823    1.4140    0.5708 C   0  0  0  0  0  0  0  0  0  0  0  0
   -4.4500    0.0283    0.9305 C   0  0  2  0  0  0  0  0  0  0  0  0
   -3.9012   -0.9924    0.0338 N   0  0  0  0  0  0  0  0  0  0  0  0
   -3.3470   -2.2300    0.5045 C   0  0  0  0  0  0  0  0  0  0  0  0
   -3.3085   -2.4808    1.7406 O   0  0  0  0  0  0  0  0  0  0  0  0
   -2.7439   -3.2053   -0.4742 C   0  0  2  0  0  0  0  0  0  0  0  0
   -3.1680   -4.6474   -0.1882 C   0  0  0  0  0  0  0  0  0  0  0  0
   -2.0000   -5.2824    0.5609 C   0  0  0  0  0  0  0  0  0  0  0  0
   -0.7795   -4.4273    0.2391 C   0  0  0  0  0  0  0  0  0  0  0  0
   -1.2945   -3.1949   -0.3401 N   0  0  0  0  0  0  0  0  0  0  0  0
   -0.4758   -2.1202   -0.8468 C   0  0  0  0  0  0  0  0  0  0  0  0
   -1.0130   -1.2192   -1.5460 O   0  0  0  0  0  0  0  0  0  0  0  0
    1.0153   -2.0639   -0.5949 C   0  0  1  0  0  0  0  0  0  0  0  0
    1.8084   -2.4001   -1.8736 C   0  0  0  0  0  0  0  0  0  0  0  0
    3.2952   -2.3902   -1.6217 C   0  0  0  0  0  0  0  0  0  0  0  0
    4.0771   -1.2863   -2.0033 C   0  0  0  0  0  0  0  0  0  0  0  0
    5.4492   -1.2685   -1.7350 C   0  0  0  0  0  0  0  0  0  0  0  0
    6.0498   -2.3492   -1.0837 C   0  0  0  0  0  0  0  0  0  0  0  0
    5.2790   -3.4493   -0.6982 C   0  0  0  0  0  0  0  0  0  0  0  0
    3.9062   -3.4707   -0.9631 C   0  0  0  0  0  0  0  0  0  0  0  0
    1.4047   -0.7694   -0.0141 N   0  0  0  0  0  0  0  0  0  0  0  0
    1.4436    0.4856   -0.7098 C   0  0  0  0  0  0  0  0  0  0  0  0
    0.9856    0.5919   -1.8798 O   0  0  0  0  0  0  0  0  0  0  0  0
    2.0179    1.5908   -0.0773 O   0  0  0  0  0  0  0  0  0  0  0  0
    2.1870    2.8453   -0.7271 C   0  0  0  0  0  0  0  0  0  0  0  0
    2.8890    3.7919    0.2014 C   0  0  0  0  0  0  0  0  0  0  0  0
    4.2924    3.8117    0.2590 C   0  0  0  0  0  0  0  0  0  0  0  0
    4.9484    4.6657    1.1511 C   0  0  0  0  0  0  0  0  0  0  0  0
    4.2090    5.4953    1.9988 C   0  0  0  0  0  0  0  0  0  0  0  0
    2.8122    5.4683    1.9593 C   0  0  0  0  0  0  0  0  0  0  0  0
    2.1523    4.6155    1.0687 C   0  0  0  0  0  0  0  0  0  0  0  0
   -6.0503   -0.0056    0.8348 B   0  0  0  0  0  0  0  0  0  0  0  0
   -6.7680   -1.2217    1.2096 O   0  0  0  0  0  0  0  0  0  0  0  0
   -6.8009    1.1577    0.3639 O   0  0  0  0  0  0  0  0  0  0  0  0
   -2.4693    5.1785   -0.6265 H   0  0  0  0  0  0  0  0  0  0  0  0
   -0.6860    4.8104   -0.7550 H   0  0  0  0  0  0  0  0  0  0  0  0
   -1.7408    4.7268   -2.2019 H   0  0  0  0  0  0  0  0  0  0  0  0
   -0.7261    2.8775    0.7369 H   0  0  0  0  0  0  0  0  0  0  0  0
   -2.3332    3.6090    1.1403 H   0  0  0  0  0  0  0  0  0  0  0  0
   -1.8511    0.7423    0.1237 H   0  0  0  0  0  0  0  0  0  0  0  0
   -2.1228    1.2189    1.8368 H   0  0  0  0  0  0  0  0  0  0  0  0
   -4.1215    1.6526   -0.4895 H   0  0  0  0  0  0  0  0  0  0  0  0
   -4.3612    2.1839    1.2163 H   0  0  0  0  0  0  0  0  0  0  0  0
   -4.1853   -0.1904    1.9876 H   0  0  0  0  0  0  0  0  0  0  0  0
   -3.9631   -0.8313   -0.9976 H   0  0  0  0  0  0  0  0  0  0  0  0
   -3.0348   -2.9426   -1.5155 H   0  0  0  0  0  0  0  0  0  0  0  0
   -4.1130   -4.7160    0.3950 H   0  0  0  0  0  0  0  0  0  0  0  0
   -3.3129   -5.1843   -1.1518 H   0  0  0  0  0  0  0  0  0  0  0  0
   -1.8475   -6.3386    0.2496 H   0  0  0  0  0  0  0  0  0  0  0  0
   -2.2018   -5.2515    1.6543 H   0  0  0  0  0  0  0  0  0  0  0  0
   -0.2142   -4.2136    1.1716 H   0  0  0  0  0  0  0  0  0  0  0  0
   -0.1264   -4.9436   -0.4976 H   0  0  0  0  0  0  0  0  0  0  0  0
    1.2776   -2.8398    0.1522 H   0  0  0  0  0  0  0  0  0  0  0  0
    1.5496   -1.7019   -2.6973 H   0  0  0  0  0  0  0  0  0  0  0  0
    1.5132   -3.4138   -2.2245 H   0  0  0  0  0  0  0  0  0  0  0  0
    3.6264   -0.4400   -2.5061 H   0  0  0  0  0  0  0  0  0  0  0  0
    6.0465   -0.4156   -2.0305 H   0  0  0  0  0  0  0  0  0  0  0  0
    7.1120   -2.3334   -0.8762 H   0  0  0  0  0  0  0  0  0  0  0  0
    5.7447   -4.2844   -0.1911 H   0  0  0  0  0  0  0  0  0  0  0  0
    3.3184   -4.3259   -0.6528 H   0  0  0  0  0  0  0  0  0  0  0  0
    1.7463   -0.7710    0.9736 H   0  0  0  0  0  0  0  0  0  0  0  0
    1.1961    3.2525   -1.0202 H   0  0  0  0  0  0  0  0  0  0  0  0
    2.7872    2.7092   -1.6536 H   0  0  0  0  0  0  0  0  0  0  0  0
    4.8769    3.1661   -0.3851 H   0  0  0  0  0  0  0  0  0  0  0  0
    6.0300    4.6815    1.1881 H   0  0  0  0  0  0  0  0  0  0  0  0
    4.7181    6.1547    2.6897 H   0  0  0  0  0  0  0  0  0  0  0  0
    2.2404    6.1052    2.6217 H   0  0  0  0  0  0  0  0  0  0  0  0
    1.0705    4.5981    1.0573 H   0  0  0  0  0  0  0  0  0  0  0  0
   -6.8251   -1.7477    0.3722 H   0  0  0  0  0  0  0  0  0  0  0  0
   -7.0021    1.6753    1.1840 H   0  0  0  0  0  0  0  0  0  0  0  0
  1  2  1  0
  2  3  1  0
  3  4  1  0
  4  5  1  0
  5  6  1  0
  6  7  1  0
  7  8  1  0
  8  9  2  0
  8 10  1  0
 10 11  1  0
 11 12  1  0
 12 13  1  0
 13 14  1  0
 14 15  1  0
 15 16  2  0
 15 17  1  0
 17 18  1  0
 18 19  1  0
 19 20  2  0
 20 21  1  0
 21 22  2  0
 22 23  1  0
 23 24  2  0
 17 25  1  0
 25 26  1  0
 26 27  2  0
 26 28  1  0
 28 29  1  0
 29 30  1  0
 30 31  2  0
 31 32  1  0
 32 33  2  0
 33 34  1  0
 34 35  2  0
  6 36  1  0
 36 37  1  0
 36 38  1  0
 14 10  1  0
 24 19  1  0
 35 30  1  0
  1 39  1  0
  1 40  1  0
  1 41  1  0
  3 42  1  0
  3 43  1  0
  4 44  1  0
  4 45  1  0
  5 46  1  0
  5 47  1  0
  6 48  1  1
  7 49  1  0
 10 50  1  6
 11 51  1  0
 11 52  1  0
 12 53  1  0
 12 54  1  0
 13 55  1  0
 13 56  1  0
 17 57  1  1
 18 58  1  0
 18 59  1  0
 20 60  1  0
 21 61  1  0
 22 62  1  0
 23 63  1  0
 24 64  1  0
 25 65  1  0
 29 66  1  0
 29 67  1  0
 31 68  1  0
 32 69  1  0
 33 70  1  0
 34 71  1  0
 35 72  1  0
 37 73  1  0
 38 74  1  0
M  END
$$$$
