
     RDKit          3D

 16 15  0  0  0  0  0  0  0  0999 V2000
   -1.7034   -1.0680    0.7990 N   0  0  0  0  0  0  0  0  0  0  0  0
   -0.5126   -0.3141    0.4034 C   0  0  1  0  0  0  0  0  0  0  0  0
    0.1361   -0.9735   -0.8295 C   0  0  0  0  0  0  0  0  0  0  0  0
    1.7284   -0.2312   -1.2888 S   0  0  0  0  0  4  0  0  0  0  0  0
    2.5272    0.0671    0.1846 O   0  0  0  0  0  0  0  0  0  0  0  0
    1.3859    1.1599   -1.8043 O   0  0  0  0  0  0  0  0  0  0  0  0
   -0.8965    1.1109    0.1165 C   0  0  0  0  0  0  0  0  0  0  0  0
   -0.2416    2.1491    0.7719 O   0  0  0  0  0  0  0  0  0  0  0  0
   -1.8021    1.3694   -0.7217 O   0  0  0  0  0  0  0  0  0  0  0  0
   -2.1001   -0.6290    1.6623 H   0  0  0  0  0  0  0  0  0  0  0  0
   -1.4070   -2.0313    1.0799 H   0  0  0  0  0  0  0  0  0  0  0  0
    0.2131   -0.3303    1.2472 H   0  0  0  0  0  0  0  0  0  0  0  0
   -0.5520   -0.9232   -1.7008 H   0  0  0  0  0  0  0  0  0  0  0  0
    0.3247   -2.0462   -0.6118 H   0  0  0  0  0  0  0  0  0  0  0  0
    3.3830   -0.4247    0.1065 H   0  0  0  0  0  0  0  0  0  0  0  0
   -0.4831    3.1150    0.5857 H   0  0  0  0  0  0  0  0  0  0  0  0
  1  2  1  0
  2  3  1  0
  3  4  1  0
  4  5  1  6
  4  6  2  0
  2  7  1  0
  7  8  1  0
  7  9  2  0
  1 10  1  0
  1 11  1  0
  2 12  1  1
  3 13  1  0
  3 14  1  0
  5 15  1  0
  8 16  1  0
M  END
$$$$
