
     RDKit          3D

 59 60  0  0  0  0  0  0  0  0999 V2000
   -1.3788   -0.3747    1.0735 C   0  0  1  0  0  0  0  0  0  0  0  0
   -0.9577    0.7566    2.0324 C   0  0  0  0  0  0  0  0  0  0  0  0
   -2.8482   -0.8013    1.3062 C   0  0  0  0  0  0  0  0  0  0  0  0
   -3.0871   -1.3973    2.6940 C   0  0  0  0  0  0  0  0  0  0  0  0
   -1.1324   -0.0112   -0.4214 C   0  0  2  0  0  0  0  0  0  0  0  0
    0.2967    0.2251   -0.6667 N   0  0  0  0  0  0  0  0  0  0  0  0
    1.2518   -0.8435   -0.7316 C   0  0  0  0  0  0  0  0  0  0  0  0
    0.8710   -2.0452   -0.7203 O   0  0  0  0  0  0  0  0  0  0  0  0
    2.7094   -0.5392   -0.8522 C   0  0  1  0  0  0  0  0  0  0  0  0
    3.1289    0.3553    0.1525 O   0  0  0  0  0  0  0  0  0  0  0  0
    3.5489   -0.9828    0.2866 C   0  0  2  0  0  0  0  0  0  0  0  0
    5.0084   -1.1226   -0.0016 C   0  0  0  0  0  0  0  0  0  0  0  0
    5.3912   -1.9531   -0.8693 O   0  0  0  0  0  0  0  0  0  0  0  0
    5.9630   -0.3395    0.7280 N   0  0  0  0  0  0  0  0  0  0  0  0
    7.4031   -0.4422    0.5016 C   0  0  0  0  0  0  0  0  0  0  0  0
    7.9560   -1.7195    1.1410 C   0  0  0  0  0  0  0  0  0  0  0  0
    9.4658   -1.8241    0.9475 C   0  0  0  0  0  0  0  0  0  0  0  0
   -1.9495    1.1899   -0.8684 C   0  0  0  0  0  0  0  0  0  0  0  0
   -1.6052    2.3404   -0.4811 O   0  0  0  0  0  0  0  0  0  0  0  0
   -3.1266    1.0518   -1.6916 N   0  0  0  0  0  0  0  0  0  0  0  0
   -3.5022   -0.1589   -2.4070 C   0  0  0  0  0  0  0  0  0  0  0  0
   -4.7996    0.1710   -3.1342 C   0  0  0  0  0  0  0  0  0  0  0  0
   -4.9053    1.6928   -3.1299 C   0  0  0  0  0  0  0  0  0  0  0  0
   -4.0182    2.1672   -1.9788 C   0  0  1  0  0  0  0  0  0  0  0  0
   -4.8334    2.4944   -0.7600 C   0  0  0  0  0  0  0  0  0  0  0  0
   -4.9001    3.6864   -0.3531 O   0  0  0  0  0  0  0  0  0  0  0  0
   -5.5177    1.4742   -0.0918 O   0  0  0  0  0  0  0  0  0  0  0  0
   -6.2648    1.7022    1.0961 C   0  0  0  0  0  0  0  0  0  0  0  0
   -0.7383   -1.2545    1.3049 H   0  0  0  0  0  0  0  0  0  0  0  0
   -0.8946    0.3748    3.0725 H   0  0  0  0  0  0  0  0  0  0  0  0
   -1.6883    1.5924    2.0089 H   0  0  0  0  0  0  0  0  0  0  0  0
    0.0473    1.1468    1.7688 H   0  0  0  0  0  0  0  0  0  0  0  0
   -3.5279    0.0658    1.1651 H   0  0  0  0  0  0  0  0  0  0  0  0
   -3.1243   -1.5767    0.5601 H   0  0  0  0  0  0  0  0  0  0  0  0
   -4.1182   -1.8061    2.7467 H   0  0  0  0  0  0  0  0  0  0  0  0
   -2.3698   -2.2216    2.8931 H   0  0  0  0  0  0  0  0  0  0  0  0
   -2.9873   -0.6191    3.4787 H   0  0  0  0  0  0  0  0  0  0  0  0
   -1.4265   -0.8874   -1.0342 H   0  0  0  0  0  0  0  0  0  0  0  0
    0.6534    1.2037   -0.7589 H   0  0  0  0  0  0  0  0  0  0  0  0
    3.1687   -0.3034   -1.8356 H   0  0  0  0  0  0  0  0  0  0  0  0
    3.0885   -1.4744    1.1700 H   0  0  0  0  0  0  0  0  0  0  0  0
    5.6163    0.3722    1.4103 H   0  0  0  0  0  0  0  0  0  0  0  0
    7.6140   -0.4292   -0.5901 H   0  0  0  0  0  0  0  0  0  0  0  0
    7.9039    0.4398    0.9577 H   0  0  0  0  0  0  0  0  0  0  0  0
    7.7292   -1.7162    2.2293 H   0  0  0  0  0  0  0  0  0  0  0  0
    7.4737   -2.6109    0.6860 H   0  0  0  0  0  0  0  0  0  0  0  0
    9.9768   -0.9593    1.4219 H   0  0  0  0  0  0  0  0  0  0  0  0
    9.8371   -2.7582    1.4193 H   0  0  0  0  0  0  0  0  0  0  0  0
    9.7148   -1.8494   -0.1348 H   0  0  0  0  0  0  0  0  0  0  0  0
   -2.7064   -0.4240   -3.1364 H   0  0  0  0  0  0  0  0  0  0  0  0
   -3.6690   -0.9978   -1.6997 H   0  0  0  0  0  0  0  0  0  0  0  0
   -4.7978   -0.2316   -4.1704 H   0  0  0  0  0  0  0  0  0  0  0  0
   -5.6606   -0.2600   -2.5771 H   0  0  0  0  0  0  0  0  0  0  0  0
   -5.9626    2.0259   -3.0315 H   0  0  0  0  0  0  0  0  0  0  0  0
   -4.5015    2.0860   -4.0891 H   0  0  0  0  0  0  0  0  0  0  0  0
   -3.4299    3.0553   -2.3024 H   0  0  0  0  0  0  0  0  0  0  0  0
   -5.5984    2.0938    1.8936 H   0  0  0  0  0  0  0  0  0  0  0  0
   -6.7072    0.7438    1.4370 H   0  0  0  0  0  0  0  0  0  0  0  0
   -7.0823    2.4273    0.8983 H   0  0  0  0  0  0  0  0  0  0  0  0
  1  2  1  0
  1  3  1  0
  3  4  1  0
  1  5  1  0
  5  6  1  0
  6  7  1  0
  7  8  2  0
  7  9  1  0
  9 10  1  0
 10 11  1  0
 11 12  1  0
 12 13  2  0
 12 14  1  0
 14 15  1  0
 15 16  1  0
 16 17  1  0
  5 18  1  0
 18 19  2  0
 18 20  1  0
 20 21  1  0
 21 22  1  0
 22 23  1  0
 23 24  1  0
 24 25  1  0
 25 26  2  0
 25 27  1  0
 27 28  1  0
 11  9  1  0
 24 20  1  0
  1 29  1  1
  2 30  1  0
  2 31  1  0
  2 32  1  0
  3 33  1  0
  3 34  1  0
  4 35  1  0
  4 36  1  0
  4 37  1  0
  5 38  1  6
  6 39  1  0
  9 40  1  6
 11 41  1  1
 14 42  1  0
 15 43  1  0
 15 44  1  0
 16 45  1  0
 16 46  1  0
 17 47  1  0
 17 48  1  0
 17 49  1  0
 21 50  1  0
 21 51  1  0
 22 52  1  0
 22 53  1  0
 23 54  1  0
 23 55  1  0
 24 56  1  6
 28 57  1  0
 28 58  1  0
 28 59  1  0
M  END
$$$$
