
     RDKit          3D

 49 50  0  0  0  0  0  0  0  0999 V2000
   -3.0209   -0.1986    1.9851 C   0  0  1  0  0  0  0  0  0  0  0  0
   -4.5090   -0.1415    1.5761 C   0  0  0  0  0  0  0  0  0  0  0  0
   -4.7774   -1.0203    0.4300 C   0  0  0  0  0  0  0  0  0  0  0  0
   -4.9849   -1.7469   -0.5087 C   0  0  0  0  0  0  0  0  0  0  0  0
   -5.2224   -2.6378   -1.6503 C   0  0  0  0  0  0  0  0  0  0  0  0
   -4.6595   -3.9111   -1.4031 O   0  0  0  0  0  0  0  0  0  0  0  0
   -3.3057   -3.9327   -1.8028 C   0  0  0  0  0  0  0  0  0  0  0  0
   -2.7059    0.7965    3.0259 N   0  0  0  0  0  0  0  0  0  0  0  0
   -2.0957    2.2763    2.3408 S   0  0  0  0  0  6  0  0  0  0  0  0
   -1.8913    3.2823    3.4377 O   0  0  0  0  0  0  0  0  0  0  0  0
   -3.0871    2.8228    1.3513 O   0  0  0  0  0  0  0  0  0  0  0  0
   -0.5526    1.9778    1.5453 C   0  0  0  0  0  0  0  0  0  0  0  0
   -0.2135    2.6647    0.3733 C   0  0  0  0  0  0  0  0  0  0  0  0
    1.0082    2.4172   -0.2594 C   0  0  0  0  0  0  0  0  0  0  0  0
    1.9119    1.4801    0.2741 C   0  0  0  0  0  0  0  0  0  0  0  0
    1.5663    0.7995    1.4559 C   0  0  0  0  0  0  0  0  0  0  0  0
    0.3442    1.0489    2.0862 C   0  0  0  0  0  0  0  0  0  0  0  0
    3.2091    1.2141   -0.3988 C   0  0  0  0  0  0  0  0  0  0  0  0
    4.3834    1.0401    0.3547 C   0  0  0  0  0  0  0  0  0  0  0  0
    5.6031    0.7899   -0.2803 C   0  0  0  0  0  0  0  0  0  0  0  0
    5.6764    0.7073   -1.6746 C   0  0  0  0  0  0  0  0  0  0  0  0
    6.9244    0.4539   -2.2629 O   0  0  0  0  0  0  0  0  0  0  0  0
    7.1445    0.3448   -3.6655 C   0  0  0  0  0  0  0  0  0  0  0  0
    4.5045    0.8799   -2.4340 C   0  0  0  0  0  0  0  0  0  0  0  0
    3.2838    1.1313   -1.8006 C   0  0  0  0  0  0  0  0  0  0  0  0
   -2.6752   -1.5616    2.5149 C   0  0  0  0  0  0  0  0  0  0  0  0
   -3.1976   -1.9890    3.7323 O   0  0  0  0  0  0  0  0  0  0  0  0
   -1.9244   -2.3262    1.8512 O   0  0  0  0  0  0  0  0  0  0  0  0
   -2.3992   -0.0207    1.0772 H   0  0  0  0  0  0  0  0  0  0  0  0
   -5.1587   -0.4461    2.4247 H   0  0  0  0  0  0  0  0  0  0  0  0
   -4.7857    0.8927    1.2869 H   0  0  0  0  0  0  0  0  0  0  0  0
   -6.3190   -2.7593   -1.7661 H   0  0  0  0  0  0  0  0  0  0  0  0
   -4.8484   -2.1645   -2.5877 H   0  0  0  0  0  0  0  0  0  0  0  0
   -3.2164   -3.8237   -2.9062 H   0  0  0  0  0  0  0  0  0  0  0  0
   -2.8706   -4.9147   -1.5256 H   0  0  0  0  0  0  0  0  0  0  0  0
   -2.7142   -3.1446   -1.2852 H   0  0  0  0  0  0  0  0  0  0  0  0
   -3.5543    1.0252    3.5943 H   0  0  0  0  0  0  0  0  0  0  0  0
   -0.8917    3.3937   -0.0512 H   0  0  0  0  0  0  0  0  0  0  0  0
    1.2534    2.9717   -1.1565 H   0  0  0  0  0  0  0  0  0  0  0  0
    2.2329    0.0609    1.8830 H   0  0  0  0  0  0  0  0  0  0  0  0
    0.0948    0.5118    2.9925 H   0  0  0  0  0  0  0  0  0  0  0  0
    4.3627    1.1151    1.4347 H   0  0  0  0  0  0  0  0  0  0  0  0
    6.4983    0.6627    0.3152 H   0  0  0  0  0  0  0  0  0  0  0  0
    8.2197    0.1432   -3.8492 H   0  0  0  0  0  0  0  0  0  0  0  0
    6.8694    1.2949   -4.1702 H   0  0  0  0  0  0  0  0  0  0  0  0
    6.5491   -0.4955   -4.0811 H   0  0  0  0  0  0  0  0  0  0  0  0
    4.5249    0.8184   -3.5135 H   0  0  0  0  0  0  0  0  0  0  0  0
    2.3941    1.2432   -2.4077 H   0  0  0  0  0  0  0  0  0  0  0  0
   -2.9781   -2.9079    4.0977 H   0  0  0  0  0  0  0  0  0  0  0  0
  1  2  1  0
  2  3  1  0
  3  4  3  0
  4  5  1  0
  5  6  1  0
  6  7  1  0
  1  8  1  0
  8  9  1  0
  9 10  2  0
  9 11  2  0
  9 12  1  0
 12 13  2  0
 13 14  1  0
 14 15  2  0
 15 16  1  0
 16 17  2  0
 15 18  1  0
 18 19  2  0
 19 20  1  0
 20 21  2  0
 21 22  1  0
 22 23  1  0
 21 24  1  0
 24 25  2  0
  1 26  1  0
 26 27  1  0
 26 28  2  0
 17 12  1  0
 25 18  1  0
  1 29  1  6
  2 30  1  0
  2 31  1  0
  5 32  1  0
  5 33  1  0
  7 34  1  0
  7 35  1  0
  7 36  1  0
  8 37  1  0
 13 38  1  0
 14 39  1  0
 16 40  1  0
 17 41  1  0
 19 42  1  0
 20 43  1  0
 23 44  1  0
 23 45  1  0
 23 46  1  0
 24 47  1  0
 25 48  1  0
 27 49  1  0
M  END
$$$$
