
     RDKit          3D

 32 35  0  0  0  0  0  0  0  0999 V2000
   -0.1165    4.5731   -1.0390 Cl  0  0  0  0  0  0  0  0  0  0  0  0
   -0.7838    3.0224   -0.5622 C   0  0  0  0  0  0  0  0  0  0  0  0
   -0.0530    1.8522   -0.7762 C   0  0  0  0  0  0  0  0  0  0  0  0
   -0.5651    0.5969   -0.3925 C   0  0  0  0  0  0  0  0  0  0  0  0
   -1.8618    0.5358    0.1891 C   0  0  0  0  0  0  0  0  0  0  0  0
   -2.5772    1.7269    0.4071 C   0  0  0  0  0  0  0  0  0  0  0  0
   -2.0405    2.9594    0.0368 C   0  0  0  0  0  0  0  0  0  0  0  0
   -2.4794   -0.7218    0.5135 N   0  0  0  0  0  0  0  0  0  0  0  0
   -3.3748   -1.0026    1.4791 C   0  0  0  0  0  0  0  0  0  0  0  0
   -3.7867   -2.2837    1.3981 N   0  0  0  0  0  0  0  0  0  0  0  0
   -3.1626   -2.8327    0.3647 N   0  0  0  0  0  0  0  0  0  0  0  0
   -2.3795   -1.8744   -0.1644 C   0  0  0  0  0  0  0  0  0  0  0  0
   -1.5102   -2.0488   -1.3597 C   0  0  0  0  0  0  0  0  0  0  0  0
   -0.1336   -1.7504   -0.9901 N   0  0  0  0  0  0  0  0  0  0  0  0
    0.3160   -0.6072   -0.5496 C   0  0  0  0  0  0  0  0  0  0  0  0
    1.7600   -0.5187   -0.2079 C   0  0  0  0  0  0  0  0  0  0  0  0
    2.7080   -1.2759   -0.9220 C   0  0  0  0  0  0  0  0  0  0  0  0
    4.0655   -1.2020   -0.5949 C   0  0  0  0  0  0  0  0  0  0  0  0
    4.4907   -0.3801    0.4511 C   0  0  0  0  0  0  0  0  0  0  0  0
    3.5589    0.3670    1.1750 C   0  0  0  0  0  0  0  0  0  0  0  0
    2.2004    0.2970    0.8522 C   0  0  0  0  0  0  0  0  0  0  0  0
    0.9246    1.9240   -1.2376 H   0  0  0  0  0  0  0  0  0  0  0  0
   -3.5686    1.7002    0.8402 H   0  0  0  0  0  0  0  0  0  0  0  0
   -2.6096    3.8649    0.2045 H   0  0  0  0  0  0  0  0  0  0  0  0
   -3.7219   -0.3004    2.2256 H   0  0  0  0  0  0  0  0  0  0  0  0
   -1.8424   -1.3701   -2.1743 H   0  0  0  0  0  0  0  0  0  0  0  0
   -1.5696   -3.0964   -1.7223 H   0  0  0  0  0  0  0  0  0  0  0  0
    2.4004   -1.9149   -1.7405 H   0  0  0  0  0  0  0  0  0  0  0  0
    4.7883   -1.7824   -1.1535 H   0  0  0  0  0  0  0  0  0  0  0  0
    5.5419   -0.3249    0.7031 H   0  0  0  0  0  0  0  0  0  0  0  0
    3.8887    0.9976    1.9905 H   0  0  0  0  0  0  0  0  0  0  0  0
    1.4936    0.8702    1.4391 H   0  0  0  0  0  0  0  0  0  0  0  0
  1  2  1  0
  2  3  2  0
  3  4  1  0
  4  5  2  0
  5  6  1  0
  6  7  2  0
  5  8  1  0
  8  9  1  0
  9 10  2  0
 10 11  1  0
 11 12  2  0
 12 13  1  0
 13 14  1  0
 14 15  2  0
 15 16  1  0
 16 17  2  0
 17 18  1  0
 18 19  2  0
 19 20  1  0
 20 21  2  0
  7  2  1  0
 12  8  1  0
 21 16  1  0
 15  4  1  0
  3 22  1  0
  6 23  1  0
  7 24  1  0
  9 25  1  0
 13 26  1  0
 13 27  1  0
 17 28  1  0
 18 29  1  0
 19 30  1  0
 20 31  1  0
 21 32  1  0
M  END
$$$$
