
     RDKit          3D

 36 35  0  0  0  0  0  0  0  0999 V2000
    0.5608    0.4655    0.5650 C   0  0  1  0  0  0  0  0  0  0  0  0
    0.6280    0.4064    2.1195 C   0  0  0  0  0  0  0  0  0  0  0  0
    0.1985   -0.8655    2.6990 N   0  0  0  0  0  0  0  0  0  0  0  0
    1.5999   -0.4470   -0.1488 C   0  0  0  0  0  0  0  0  0  0  0  0
    3.0479    0.0262    0.0480 C   0  0  0  0  0  0  0  0  0  0  0  0
    3.9829   -0.7945   -0.7835 C   0  0  0  0  0  0  0  0  0  0  0  0
    4.2718   -0.4066   -2.0880 O   0  0  0  0  0  0  0  0  0  0  0  0
    4.4755   -1.8569   -0.3181 O   0  0  0  0  0  0  0  0  0  0  0  0
   -0.9040    0.3089    0.0120 C   0  0  2  0  0  0  0  0  0  0  0  0
   -1.3072   -1.1731   -0.2631 C   0  0  0  0  0  0  0  0  0  0  0  0
   -2.7814   -1.4781    0.0536 C   0  0  0  0  0  0  0  0  0  0  0  0
   -3.6799   -0.8045   -0.8779 N   0  0  0  0  0  0  0  0  0  0  0  0
   -1.1104    1.1673   -1.2660 C   0  0  0  0  0  0  0  0  0  0  0  0
   -1.1308    2.6357   -0.9607 C   0  0  0  0  0  0  0  0  0  0  0  0
   -2.1989    3.1818   -0.2559 O   0  0  0  0  0  0  0  0  0  0  0  0
   -0.1801    3.3736   -1.3344 O   0  0  0  0  0  0  0  0  0  0  0  0
    0.8751    1.5070    0.3364 H   0  0  0  0  0  0  0  0  0  0  0  0
    1.6577    0.6265    2.4677 H   0  0  0  0  0  0  0  0  0  0  0  0
   -0.0088    1.2168    2.5375 H   0  0  0  0  0  0  0  0  0  0  0  0
   -0.8197   -1.0097    2.5168 H   0  0  0  0  0  0  0  0  0  0  0  0
    0.7428   -1.6551    2.2877 H   0  0  0  0  0  0  0  0  0  0  0  0
    1.5190   -1.4978    0.1950 H   0  0  0  0  0  0  0  0  0  0  0  0
    1.3870   -0.4467   -1.2395 H   0  0  0  0  0  0  0  0  0  0  0  0
    3.3443   -0.0661    1.1137 H   0  0  0  0  0  0  0  0  0  0  0  0
    3.1451    1.0921   -0.2512 H   0  0  0  0  0  0  0  0  0  0  0  0
    4.8893   -0.9602   -2.6698 H   0  0  0  0  0  0  0  0  0  0  0  0
   -1.5967    0.7129    0.7848 H   0  0  0  0  0  0  0  0  0  0  0  0
   -0.7125   -1.8639    0.3646 H   0  0  0  0  0  0  0  0  0  0  0  0
   -1.0835   -1.4519   -1.3165 H   0  0  0  0  0  0  0  0  0  0  0  0
   -2.9450   -2.5776   -0.0062 H   0  0  0  0  0  0  0  0  0  0  0  0
   -3.0162   -1.1611    1.0933 H   0  0  0  0  0  0  0  0  0  0  0  0
   -4.6605   -0.9963   -0.5696 H   0  0  0  0  0  0  0  0  0  0  0  0
   -3.5707   -1.2516   -1.8173 H   0  0  0  0  0  0  0  0  0  0  0  0
   -2.0762    0.9248   -1.7508 H   0  0  0  0  0  0  0  0  0  0  0  0
   -0.3174    0.9482   -2.0126 H   0  0  0  0  0  0  0  0  0  0  0  0
   -2.2255    4.1705   -0.0370 H   0  0  0  0  0  0  0  0  0  0  0  0
  1  2  1  0
  2  3  1  0
  1  4  1  0
  4  5  1  0
  5  6  1  0
  6  7  1  0
  6  8  2  0
  1  9  1  0
  9 10  1  0
 10 11  1  0
 11 12  1  0
  9 13  1  0
 13 14  1  0
 14 15  1  0
 14 16  2  0
  1 17  1  1
  2 18  1  0
  2 19  1  0
  3 20  1  0
  3 21  1  0
  4 22  1  0
  4 23  1  0
  5 24  1  0
  5 25  1  0
  7 26  1  0
  9 27  1  1
 10 28  1  0
 10 29  1  0
 11 30  1  0
 11 31  1  0
 12 32  1  0
 12 33  1  0
 13 34  1  0
 13 35  1  0
 15 36  1  0
M  END
$$$$
