
     RDKit          3D

163165  0  0  0  0  0  0  0  0999 V2000
   11.2506    2.0081   -1.9352 C   0  0  0  0  0  0  0  0  0  0  0  0
   10.2916    1.3952   -0.8984 C   0  0  0  0  0  0  0  0  0  0  0  0
    9.9466   -0.0824   -1.2231 C   0  0  0  0  0  0  0  0  0  0  0  0
    9.2694   -0.3328   -2.6111 C   0  0  0  0  0  0  0  0  0  0  0  0
   10.2405   -1.0934   -3.5312 C   0  0  0  0  0  0  0  0  0  0  0  0
    7.8989   -1.0587   -2.4461 C   0  0  0  0  0  0  0  0  0  0  0  0
    7.0923   -0.2487   -1.5781 O   0  0  0  0  0  0  0  0  0  0  0  0
    6.4266   -0.6607   -0.4130 C   0  0  0  0  0  0  0  0  0  0  0  0
    5.6515    0.1584    0.1476 O   0  0  0  0  0  0  0  0  0  0  0  0
    6.5929   -2.0242    0.2037 C   0  0  0  0  0  0  0  0  0  0  0  0
    5.7935   -3.1000   -0.4924 C   0  0  0  0  0  0  0  0  0  0  0  0
    6.2522   -4.2315   -0.5378 O   0  0  0  0  0  0  0  0  0  0  0  0
    4.4187   -2.8534   -1.0680 C   0  0  0  0  0  0  0  0  0  0  0  0
    3.2934   -3.3367   -0.1475 C   0  0  0  0  0  0  0  0  0  0  0  0
    3.1212   -2.4355    1.0829 C   0  0  0  0  0  0  0  0  0  0  0  0
    1.8305   -2.7460    1.7926 C   0  0  0  0  0  0  0  0  0  0  0  0
    1.8437   -3.4595    2.7846 O   0  0  0  0  0  0  0  0  0  0  0  0
    0.5214   -2.1992    1.2793 C   0  0  0  0  0  0  0  0  0  0  0  0
   -0.4074   -3.3238    0.7902 C   0  0  0  0  0  0  0  0  0  0  0  0
   -0.8540   -4.0679    1.8963 O   0  0  0  0  0  0  0  0  0  0  0  0
   -1.6136   -2.7283    0.0384 C   0  0  0  0  0  0  0  0  0  0  0  0
   -2.5290   -3.8073   -0.5773 C   0  0  0  0  0  0  0  0  0  0  0  0
   -1.7981   -4.6478   -1.4367 O   0  0  0  0  0  0  0  0  0  0  0  0
   -3.7183   -3.1592   -1.3213 C   0  0  0  0  0  0  0  0  0  0  0  0
   -4.7676   -4.2032   -1.7738 C   0  0  0  0  0  0  0  0  0  0  0  0
   -4.2066   -5.1160   -2.6842 O   0  0  0  0  0  0  0  0  0  0  0  0
   -6.0143   -3.5459   -2.4034 C   0  0  0  0  0  0  0  0  0  0  0  0
   -6.7758   -2.6974   -1.4182 C   0  0  0  0  0  0  0  0  0  0  0  0
   -6.7354   -1.4811   -1.5245 O   0  0  0  0  0  0  0  0  0  0  0  0
   -7.5358   -3.3276   -0.2751 C   0  0  0  0  0  0  0  0  0  0  0  0
   -9.0573   -2.9964   -0.3079 C   0  0  0  0  0  0  0  0  0  0  0  0
   -9.7964   -4.1941   -0.3594 O   0  0  0  0  0  0  0  0  0  0  0  0
   -9.5088   -2.1297    0.9084 C   0  0  0  0  0  0  0  0  0  0  0  0
   -8.9242   -0.6907    0.8569 C   0  0  0  0  0  0  0  0  0  0  0  0
   -9.5838    0.0791   -0.1188 O   0  0  0  0  0  0  0  0  0  0  0  0
   -9.0220    0.0111    2.2314 C   0  0  0  0  0  0  0  0  0  0  0  0
   -8.4214    1.4400    2.2508 C   0  0  0  0  0  0  0  0  0  0  0  0
   -9.2240    2.3093    1.4669 O   0  0  0  0  0  0  0  0  0  0  0  0
  -10.1733    2.9978    2.2595 C   0  0  0  0  0  0  0  0  0  0  0  0
   -9.5300    4.0672    2.9320 O   0  0  0  0  0  0  0  0  0  0  0  0
  -10.3741    4.6714    3.9082 C   0  0  2  0  0  0  0  0  0  0  0  0
  -10.2005    3.9857    5.2676 C   0  0  0  0  0  0  0  0  0  0  0  0
  -11.8725    4.7537    3.4839 C   0  0  1  0  0  0  0  0  0  0  0  0
  -12.4975    5.8668    4.0762 O   0  0  0  0  0  0  0  0  0  0  0  0
  -11.9732    4.7930    1.9439 C   0  0  2  0  0  0  0  0  0  0  0  0
  -13.3718    4.8905    1.5146 N   0  0  0  0  0  0  0  0  0  0  0  0
  -11.2848    3.5395    1.3330 C   0  0  2  0  0  0  0  0  0  0  0  0
  -12.2179    2.5090    1.1120 O   0  0  0  0  0  0  0  0  0  0  0  0
   -7.0211    1.4553    1.6935 C   0  0  0  0  0  0  0  0  0  0  0  0
   -6.0108    0.8245    2.3066 C   0  0  0  0  0  0  0  0  0  0  0  0
   -4.6492    0.7263    1.7419 C   0  0  0  0  0  0  0  0  0  0  0  0
   -4.3907    0.7691    0.4286 C   0  0  0  0  0  0  0  0  0  0  0  0
   -3.0144    0.6376   -0.0766 C   0  0  0  0  0  0  0  0  0  0  0  0
   -2.7658    0.6193   -1.3925 C   0  0  0  0  0  0  0  0  0  0  0  0
   -1.4156    0.4717   -1.9781 C   0  0  0  0  0  0  0  0  0  0  0  0
   -0.2813    0.7531   -1.3177 C   0  0  0  0  0  0  0  0  0  0  0  0
    1.0721    0.5895   -1.8893 C   0  0  0  0  0  0  0  0  0  0  0  0
    1.3600   -0.2231   -2.9184 C   0  0  0  0  0  0  0  0  0  0  0  0
    2.7366   -0.4532   -3.4044 C   0  0  0  0  0  0  0  0  0  0  0  0
    3.7271    0.4449   -3.2769 C   0  0  0  0  0  0  0  0  0  0  0  0
    5.1452    0.1778   -3.6061 C   0  0  0  0  0  0  0  0  0  0  0  0
    5.6665   -1.0520   -3.7233 C   0  0  0  0  0  0  0  0  0  0  0  0
    7.1605   -1.2815   -3.8177 C   0  0  0  0  0  0  0  0  0  0  0  0
    7.3954   -2.7077   -4.3494 C   0  0  0  0  0  0  0  0  0  0  0  0
  -11.0153   -2.0870    1.0098 C   0  0  0  0  0  0  0  0  0  0  0  0
  -11.7852   -1.7610   -0.1037 O   0  0  0  0  0  0  0  0  0  0  0  0
  -11.5792   -2.3266    2.1112 O   0  0  0  0  0  0  0  0  0  0  0  0
    9.0249    2.2626   -0.6070 C   0  0  0  0  0  0  0  0  0  0  0  0
    8.2772    2.5049   -1.7732 O   0  0  0  0  0  0  0  0  0  0  0  0
    9.3326    3.5964    0.1155 C   0  0  0  0  0  0  0  0  0  0  0  0
    9.8773    3.3738    1.5049 C   0  0  0  0  0  0  0  0  0  0  0  0
    9.0656    3.0637    2.4191 O   0  0  0  0  0  0  0  0  0  0  0  0
   11.3292    3.4169    1.8140 C   0  0  0  0  0  0  0  0  0  0  0  0
   11.8472    2.5775    2.8167 C   0  0  0  0  0  0  0  0  0  0  0  0
   13.2123    2.5851    3.1165 C   0  0  0  0  0  0  0  0  0  0  0  0
   14.0818    3.4378    2.4255 C   0  0  0  0  0  0  0  0  0  0  0  0
   15.4786    3.4449    2.7320 N   0  0  0  0  0  0  0  0  0  0  0  0
   13.5724    4.2878    1.4361 C   0  0  0  0  0  0  0  0  0  0  0  0
   12.2073    4.2819    1.1338 C   0  0  0  0  0  0  0  0  0  0  0  0
   11.6264    2.9910   -1.5859 H   0  0  0  0  0  0  0  0  0  0  0  0
   10.7653    2.1455   -2.9220 H   0  0  0  0  0  0  0  0  0  0  0  0
   12.1330    1.3472   -2.0693 H   0  0  0  0  0  0  0  0  0  0  0  0
   10.8694    1.3413    0.0491 H   0  0  0  0  0  0  0  0  0  0  0  0
   10.8854   -0.6751   -1.1404 H   0  0  0  0  0  0  0  0  0  0  0  0
    9.3199   -0.4776   -0.3957 H   0  0  0  0  0  0  0  0  0  0  0  0
    9.0626    0.6327   -3.1131 H   0  0  0  0  0  0  0  0  0  0  0  0
   10.3792   -2.1370   -3.1767 H   0  0  0  0  0  0  0  0  0  0  0  0
    9.8753   -1.0964   -4.5783 H   0  0  0  0  0  0  0  0  0  0  0  0
   11.2307   -0.5904   -3.5439 H   0  0  0  0  0  0  0  0  0  0  0  0
    8.0966   -2.0442   -1.9750 H   0  0  0  0  0  0  0  0  0  0  0  0
    7.6695   -2.2945    0.2209 H   0  0  0  0  0  0  0  0  0  0  0  0
    6.2724   -1.9868    1.2661 H   0  0  0  0  0  0  0  0  0  0  0  0
    4.3420   -3.4051   -2.0293 H   0  0  0  0  0  0  0  0  0  0  0  0
    4.2615   -1.7815   -1.2996 H   0  0  0  0  0  0  0  0  0  0  0  0
    2.3546   -3.3245   -0.7430 H   0  0  0  0  0  0  0  0  0  0  0  0
    3.4792   -4.3858    0.1716 H   0  0  0  0  0  0  0  0  0  0  0  0
    3.1170   -1.3657    0.7799 H   0  0  0  0  0  0  0  0  0  0  0  0
    3.9740   -2.5870    1.7786 H   0  0  0  0  0  0  0  0  0  0  0  0
    0.0246   -1.6185    2.0868 H   0  0  0  0  0  0  0  0  0  0  0  0
    0.7248   -1.4979    0.4409 H   0  0  0  0  0  0  0  0  0  0  0  0
    0.1718   -3.9695    0.0882 H   0  0  0  0  0  0  0  0  0  0  0  0
   -0.9495   -5.0094    1.5962 H   0  0  0  0  0  0  0  0  0  0  0  0
   -2.2051   -2.1030    0.7428 H   0  0  0  0  0  0  0  0  0  0  0  0
   -1.2441   -2.0715   -0.7778 H   0  0  0  0  0  0  0  0  0  0  0  0
   -2.9379   -4.4270    0.2501 H   0  0  0  0  0  0  0  0  0  0  0  0
   -1.4291   -4.0832   -2.1657 H   0  0  0  0  0  0  0  0  0  0  0  0
   -4.2057   -2.4354   -0.6322 H   0  0  0  0  0  0  0  0  0  0  0  0
   -3.3502   -2.5849   -2.2001 H   0  0  0  0  0  0  0  0  0  0  0  0
   -5.0909   -4.7814   -0.8814 H   0  0  0  0  0  0  0  0  0  0  0  0
   -3.9075   -4.6011   -3.4793 H   0  0  0  0  0  0  0  0  0  0  0  0
   -6.6938   -4.3395   -2.7828 H   0  0  0  0  0  0  0  0  0  0  0  0
   -5.7098   -2.9272   -3.2765 H   0  0  0  0  0  0  0  0  0  0  0  0
   -7.0682   -3.0018    0.6788 H   0  0  0  0  0  0  0  0  0  0  0  0
   -7.3953   -4.4297   -0.3157 H   0  0  0  0  0  0  0  0  0  0  0  0
   -9.2991   -2.4390   -1.2396 H   0  0  0  0  0  0  0  0  0  0  0  0
   -9.6423   -4.6773    0.4948 H   0  0  0  0  0  0  0  0  0  0  0  0
   -9.1241   -2.6309    1.8261 H   0  0  0  0  0  0  0  0  0  0  0  0
   -7.8422   -0.7630    0.6177 H   0  0  0  0  0  0  0  0  0  0  0  0
   -9.0992   -0.0518   -0.9747 H   0  0  0  0  0  0  0  0  0  0  0  0
  -10.0854    0.0607    2.5478 H   0  0  0  0  0  0  0  0  0  0  0  0
   -8.4906   -0.6054    2.9892 H   0  0  0  0  0  0  0  0  0  0  0  0
   -8.3480    1.7786    3.3136 H   0  0  0  0  0  0  0  0  0  0  0  0
  -10.6453    2.2994    2.9937 H   0  0  0  0  0  0  0  0  0  0  0  0
   -9.9995    5.7111    4.0312 H   0  0  0  0  0  0  0  0  0  0  0  0
  -10.5681    2.9389    5.2378 H   0  0  0  0  0  0  0  0  0  0  0  0
   -9.1262    3.9765    5.5491 H   0  0  0  0  0  0  0  0  0  0  0  0
  -10.7648    4.5398    6.0476 H   0  0  0  0  0  0  0  0  0  0  0  0
  -12.4089    3.8431    3.8338 H   0  0  0  0  0  0  0  0  0  0  0  0
  -12.0827    6.6850    3.6958 H   0  0  0  0  0  0  0  0  0  0  0  0
  -11.4260    5.6964    1.5849 H   0  0  0  0  0  0  0  0  0  0  0  0
  -13.7653    5.7961    1.8587 H   0  0  0  0  0  0  0  0  0  0  0  0
  -13.3870    4.9586    0.4708 H   0  0  0  0  0  0  0  0  0  0  0  0
  -10.8176    3.8469    0.3656 H   0  0  0  0  0  0  0  0  0  0  0  0
  -12.5488    2.6050    0.1808 H   0  0  0  0  0  0  0  0  0  0  0  0
   -6.8513    1.9828    0.7633 H   0  0  0  0  0  0  0  0  0  0  0  0
   -6.1803    0.3716    3.2758 H   0  0  0  0  0  0  0  0  0  0  0  0
   -3.8390    0.5393    2.4368 H   0  0  0  0  0  0  0  0  0  0  0  0
   -5.1972    0.8749   -0.2863 H   0  0  0  0  0  0  0  0  0  0  0  0
   -2.2102    0.5293    0.6394 H   0  0  0  0  0  0  0  0  0  0  0  0
   -3.5970    0.6587   -2.0869 H   0  0  0  0  0  0  0  0  0  0  0  0
   -1.3765    0.1654   -3.0143 H   0  0  0  0  0  0  0  0  0  0  0  0
   -0.3249    1.1734   -0.3227 H   0  0  0  0  0  0  0  0  0  0  0  0
    1.8721    1.0964   -1.3661 H   0  0  0  0  0  0  0  0  0  0  0  0
    0.5867   -0.8395   -3.3556 H   0  0  0  0  0  0  0  0  0  0  0  0
    2.9137   -1.3968   -3.9000 H   0  0  0  0  0  0  0  0  0  0  0  0
    3.5080    1.4322   -2.8923 H   0  0  0  0  0  0  0  0  0  0  0  0
    5.8153    1.0294   -3.6090 H   0  0  0  0  0  0  0  0  0  0  0  0
    5.0225   -1.9178   -3.7106 H   0  0  0  0  0  0  0  0  0  0  0  0
    7.5508   -0.5718   -4.5805 H   0  0  0  0  0  0  0  0  0  0  0  0
    8.4717   -2.9261   -4.4818 H   0  0  0  0  0  0  0  0  0  0  0  0
    6.9031   -2.8315   -5.3381 H   0  0  0  0  0  0  0  0  0  0  0  0
    6.9742   -3.4599   -3.6472 H   0  0  0  0  0  0  0  0  0  0  0  0
  -12.7954   -1.7195   -0.0427 H   0  0  0  0  0  0  0  0  0  0  0  0
    8.3695    1.6792    0.0764 H   0  0  0  0  0  0  0  0  0  0  0  0
    8.7608    3.1822   -2.3133 H   0  0  0  0  0  0  0  0  0  0  0  0
    8.3846    4.1697    0.2100 H   0  0  0  0  0  0  0  0  0  0  0  0
   10.0021    4.2212   -0.5037 H   0  0  0  0  0  0  0  0  0  0  0  0
   11.1974    1.9009    3.3582 H   0  0  0  0  0  0  0  0  0  0  0  0
   13.5923    1.9246    3.8858 H   0  0  0  0  0  0  0  0  0  0  0  0
   15.8672    2.8159    3.4698 H   0  0  0  0  0  0  0  0  0  0  0  0
   16.1345    4.0786    2.2230 H   0  0  0  0  0  0  0  0  0  0  0  0
   14.2324    4.9606    0.9030 H   0  0  0  0  0  0  0  0  0  0  0  0
   11.8486    4.9757    0.3876 H   0  0  0  0  0  0  0  0  0  0  0  0
  1  2  1  0
  2  3  1  0
  3  4  1  0
  4  5  1  0
  4  6  1  0
  6  7  1  0
  7  8  1  0
  8  9  2  0
  8 10  1  0
 10 11  1  0
 11 12  2  0
 11 13  1  0
 13 14  1  0
 14 15  1  0
 15 16  1  0
 16 17  2  0
 16 18  1  0
 18 19  1  0
 19 20  1  0
 19 21  1  0
 21 22  1  0
 22 23  1  0
 22 24  1  0
 24 25  1  0
 25 26  1  0
 25 27  1  0
 27 28  1  0
 28 29  2  0
 28 30  1  0
 30 31  1  0
 31 32  1  0
 31 33  1  0
 33 34  1  0
 34 35  1  0
 34 36  1  0
 36 37  1  0
 37 38  1  0
 38 39  1  0
 39 40  1  0
 40 41  1  0
 41 42  1  0
 41 43  1  0
 43 44  1  0
 43 45  1  0
 45 46  1  0
 45 47  1  0
 47 48  1  0
 37 49  1  0
 49 50  2  0
 50 51  1  0
 51 52  2  0
 52 53  1  0
 53 54  2  0
 54 55  1  0
 55 56  2  0
 56 57  1  0
 57 58  2  0
 58 59  1  0
 59 60  2  0
 60 61  1  0
 61 62  2  0
 62 63  1  0
 63 64  1  0
 33 65  1  0
 65 66  1  0
 65 67  2  0
  2 68  1  0
 68 69  1  0
 68 70  1  0
 70 71  1  0
 71 72  2  0
 71 73  1  0
 73 74  2  0
 74 75  1  0
 75 76  2  0
 76 77  1  0
 76 78  1  0
 78 79  2  0
 63  6  1  0
 79 73  1  0
 47 39  1  0
  1 80  1  0
  1 81  1  0
  1 82  1  0
  2 83  1  0
  3 84  1  0
  3 85  1  0
  4 86  1  0
  5 87  1  0
  5 88  1  0
  5 89  1  0
  6 90  1  0
 10 91  1  0
 10 92  1  0
 13 93  1  0
 13 94  1  0
 14 95  1  0
 14 96  1  0
 15 97  1  0
 15 98  1  0
 18 99  1  0
 18100  1  0
 19101  1  0
 20102  1  0
 21103  1  0
 21104  1  0
 22105  1  0
 23106  1  0
 24107  1  0
 24108  1  0
 25109  1  0
 26110  1  0
 27111  1  0
 27112  1  0
 30113  1  0
 30114  1  0
 31115  1  0
 32116  1  0
 33117  1  0
 34118  1  0
 35119  1  0
 36120  1  0
 36121  1  0
 37122  1  0
 39123  1  0
 41124  1  1
 42125  1  0
 42126  1  0
 42127  1  0
 43128  1  1
 44129  1  0
 45130  1  6
 46131  1  0
 46132  1  0
 47133  1  6
 48134  1  0
 49135  1  0
 50136  1  0
 51137  1  0
 52138  1  0
 53139  1  0
 54140  1  0
 55141  1  0
 56142  1  0
 57143  1  0
 58144  1  0
 59145  1  0
 60146  1  0
 61147  1  0
 62148  1  0
 63149  1  0
 64150  1  0
 64151  1  0
 64152  1  0
 66153  1  0
 68154  1  0
 69155  1  0
 70156  1  0
 70157  1  0
 74158  1  0
 75159  1  0
 77160  1  0
 77161  1  0
 78162  1  0
 79163  1  0
M  END
$$$$
