
     RDKit          3D

 43 45  0  0  0  0  0  0  0  0999 V2000
   -2.8364    3.2907    1.7050 C   0  0  0  0  0  0  0  0  0  0  0  0
   -3.3262    1.9796    1.9673 O   0  0  0  0  0  0  0  0  0  0  0  0
   -3.0343    0.8529    1.1840 C   0  0  0  0  0  0  0  0  0  0  0  0
   -2.2218    0.9200    0.0387 C   0  0  0  0  0  0  0  0  0  0  0  0
   -1.9408   -0.2347   -0.7137 C   0  0  0  0  0  0  0  0  0  0  0  0
   -1.0545   -0.1166   -1.9341 C   0  0  0  0  0  0  0  0  0  0  0  0
    0.3242    0.4055   -1.5677 C   0  0  0  0  0  0  0  0  0  0  0  0
    1.2300   -0.3158   -0.7402 C   0  0  0  0  0  0  0  0  0  0  0  0
    0.9558   -1.7742   -0.4390 C   0  0  0  0  0  0  0  0  0  0  0  0
    2.4253    0.3335   -0.3008 C   0  0  0  0  0  0  0  0  0  0  0  0
    2.7766    1.5621   -0.9112 C   0  0  0  0  0  0  0  0  0  0  0  0
    1.9170    2.1822   -1.7534 N   0  0  0  0  0  0  0  0  0  0  0  0
    0.7066    1.6613   -2.0583 C   0  0  0  0  0  0  0  0  0  0  0  0
    3.9786    2.1379   -0.6608 N   0  0  0  0  0  0  0  0  0  0  0  0
    4.8599    1.5768    0.2001 C   0  0  0  0  0  0  0  0  0  0  0  0
    6.1245    2.1930    0.4307 N   0  0  0  0  0  0  0  0  0  0  0  0
    4.5156    0.4578    0.8816 N   0  0  0  0  0  0  0  0  0  0  0  0
    3.3212   -0.1624    0.6900 C   0  0  0  0  0  0  0  0  0  0  0  0
    2.9638   -1.1989    1.6080 N   0  0  0  0  0  0  0  0  0  0  0  0
   -2.5041   -1.4710   -0.3291 C   0  0  0  0  0  0  0  0  0  0  0  0
   -2.2388   -2.6157   -1.0991 O   0  0  0  0  0  0  0  0  0  0  0  0
   -2.7142   -3.9233   -0.7976 C   0  0  0  0  0  0  0  0  0  0  0  0
   -3.3177   -1.5279    0.8186 C   0  0  0  0  0  0  0  0  0  0  0  0
   -3.5747   -0.3768    1.5645 C   0  0  0  0  0  0  0  0  0  0  0  0
   -3.1922    3.6399    0.7127 H   0  0  0  0  0  0  0  0  0  0  0  0
   -1.7263    3.2973    1.7376 H   0  0  0  0  0  0  0  0  0  0  0  0
   -3.2187    3.9829    2.4830 H   0  0  0  0  0  0  0  0  0  0  0  0
   -1.7983    1.8654   -0.2736 H   0  0  0  0  0  0  0  0  0  0  0  0
   -1.5594    0.5713   -2.6470 H   0  0  0  0  0  0  0  0  0  0  0  0
   -0.9600   -1.0716   -2.4882 H   0  0  0  0  0  0  0  0  0  0  0  0
    0.4652   -2.2772   -1.2939 H   0  0  0  0  0  0  0  0  0  0  0  0
    1.8957   -2.3442   -0.2982 H   0  0  0  0  0  0  0  0  0  0  0  0
    0.3026   -1.8678    0.4527 H   0  0  0  0  0  0  0  0  0  0  0  0
    0.0487    2.2240   -2.7081 H   0  0  0  0  0  0  0  0  0  0  0  0
    6.8003    1.7755    1.1084 H   0  0  0  0  0  0  0  0  0  0  0  0
    6.3874    3.0667   -0.0771 H   0  0  0  0  0  0  0  0  0  0  0  0
    1.9772   -1.3253    1.9198 H   0  0  0  0  0  0  0  0  0  0  0  0
    3.7063   -1.6576    2.1813 H   0  0  0  0  0  0  0  0  0  0  0  0
   -3.8244   -3.9385   -0.8098 H   0  0  0  0  0  0  0  0  0  0  0  0
   -2.3411   -4.6300   -1.5667 H   0  0  0  0  0  0  0  0  0  0  0  0
   -2.3363   -4.2470    0.1952 H   0  0  0  0  0  0  0  0  0  0  0  0
   -3.7599   -2.4594    1.1440 H   0  0  0  0  0  0  0  0  0  0  0  0
   -4.2022   -0.4405    2.4446 H   0  0  0  0  0  0  0  0  0  0  0  0
  1  2  1  0
  2  3  1  0
  3  4  2  0
  4  5  1  0
  5  6  1  0
  6  7  1  0
  7  8  2  0
  8  9  1  0
  8 10  1  0
 10 11  2  0
 11 12  1  0
 12 13  2  0
 11 14  1  0
 14 15  2  0
 15 16  1  0
 15 17  1  0
 17 18  2  0
 18 19  1  0
  5 20  2  0
 20 21  1  0
 21 22  1  0
 20 23  1  0
 23 24  2  0
 24  3  1  0
 13  7  1  0
 18 10  1  0
  1 25  1  0
  1 26  1  0
  1 27  1  0
  4 28  1  0
  6 29  1  0
  6 30  1  0
  9 31  1  0
  9 32  1  0
  9 33  1  0
 13 34  1  0
 16 35  1  0
 16 36  1  0
 19 37  1  0
 19 38  1  0
 22 39  1  0
 22 40  1  0
 22 41  1  0
 23 42  1  0
 24 43  1  0
M  END
$$$$
