
     RDKit          3D

 51 53  0  0  0  0  0  0  0  0999 V2000
   -5.9694   -2.5776   -1.3760 O   0  0  0  0  0  0  0  0  0  0  0  0
   -5.0490   -1.6488   -0.8913 C   0  0  0  0  0  0  0  0  0  0  0  0
   -4.3536   -0.8259   -1.7838 C   0  0  0  0  0  0  0  0  0  0  0  0
   -3.4270    0.1194   -1.3188 C   0  0  0  0  0  0  0  0  0  0  0  0
   -3.1983    0.2165    0.0659 C   0  0  0  0  0  0  0  0  0  0  0  0
   -3.8875   -0.6021    0.9812 C   0  0  0  0  0  0  0  0  0  0  0  0
   -4.8200   -1.5434    0.4910 C   0  0  0  0  0  0  0  0  0  0  0  0
   -5.5053   -2.3794    1.3744 O   0  0  0  0  0  0  0  0  0  0  0  0
   -3.6216   -0.4748    2.3950 N   0  0  0  0  0  4  0  0  0  0  0  0
   -4.4455   -1.0569    3.3306 O   0  0  0  0  0  1  0  0  0  0  0  0
   -2.6534    0.2033    2.7978 O   0  0  0  0  0  0  0  0  0  0  0  0
   -2.6956    0.9708   -2.2978 C   0  0  0  0  0  0  0  0  0  0  0  0
   -2.5866    0.5768   -3.4914 O   0  0  0  0  0  0  0  0  0  0  0  0
   -2.1390    2.3277   -1.9453 C   0  0  0  0  0  0  0  0  0  0  0  0
   -0.6312    2.4810   -2.2572 C   0  0  0  0  0  0  0  0  0  0  0  0
    0.2895    1.7412   -1.3656 N   0  0  0  0  0  0  0  0  0  0  0  0
    0.2268    0.2742   -1.4764 C   0  0  0  0  0  0  0  0  0  0  0  0
    1.5189   -0.3232   -0.9115 C   0  0  0  0  0  0  0  0  0  0  0  0
    1.9112    0.3582    0.3310 N   0  0  0  0  0  0  0  0  0  0  0  0
    0.9385    1.2256    1.0085 C   0  0  0  0  0  0  0  0  0  0  0  0
    0.3595    2.2563    0.0224 C   0  0  0  0  0  0  0  0  0  0  0  0
    3.2366    0.1736    0.8650 C   0  0  0  0  0  0  0  0  0  0  0  0
    3.7928   -1.1139    0.9627 C   0  0  0  0  0  0  0  0  0  0  0  0
    5.0955   -1.2988    1.4596 C   0  0  0  0  0  0  0  0  0  0  0  0
    5.8245   -0.1802    1.8979 C   0  0  0  0  0  0  0  0  0  0  0  0
    5.2801    1.1015    1.7956 C   0  0  0  0  0  0  0  0  0  0  0  0
    3.9967    1.2804    1.2764 C   0  0  0  0  0  0  0  0  0  0  0  0
    5.6617   -2.6883    1.6129 C   0  0  0  0  0  0  0  0  0  0  0  0
    5.1865   -3.5210    0.6145 F   0  0  0  0  0  0  0  0  0  0  0  0
    7.0437   -2.6665    1.5357 F   0  0  0  0  0  0  0  0  0  0  0  0
    5.2874   -3.1990    2.8417 F   0  0  0  0  0  0  0  0  0  0  0  0
   -6.1541   -2.6765   -2.3675 H   0  0  0  0  0  0  0  0  0  0  0  0
   -4.5475   -0.9220   -2.8452 H   0  0  0  0  0  0  0  0  0  0  0  0
   -2.4627    0.9098    0.4434 H   0  0  0  0  0  0  0  0  0  0  0  0
   -6.1774   -3.0688    1.0598 H   0  0  0  0  0  0  0  0  0  0  0  0
   -2.6791    3.0635   -2.5793 H   0  0  0  0  0  0  0  0  0  0  0  0
   -2.3793    2.6309   -0.9111 H   0  0  0  0  0  0  0  0  0  0  0  0
   -0.4381    2.1860   -3.3118 H   0  0  0  0  0  0  0  0  0  0  0  0
   -0.3791    3.5627   -2.2018 H   0  0  0  0  0  0  0  0  0  0  0  0
   -0.6326   -0.1251   -0.9019 H   0  0  0  0  0  0  0  0  0  0  0  0
    0.1218   -0.0385   -2.5384 H   0  0  0  0  0  0  0  0  0  0  0  0
    1.3732   -1.4080   -0.7232 H   0  0  0  0  0  0  0  0  0  0  0  0
    2.3262   -0.1975   -1.6661 H   0  0  0  0  0  0  0  0  0  0  0  0
    1.3859    1.7458    1.8825 H   0  0  0  0  0  0  0  0  0  0  0  0
    0.1131    0.5917    1.3997 H   0  0  0  0  0  0  0  0  0  0  0  0
   -0.6310    2.5779    0.3990 H   0  0  0  0  0  0  0  0  0  0  0  0
    1.0185    3.1509    0.0246 H   0  0  0  0  0  0  0  0  0  0  0  0
    3.2046   -1.9733    0.6683 H   0  0  0  0  0  0  0  0  0  0  0  0
    6.8154   -0.2965    2.3186 H   0  0  0  0  0  0  0  0  0  0  0  0
    5.8548    1.9593    2.1204 H   0  0  0  0  0  0  0  0  0  0  0  0
    3.6002    2.2835    1.1852 H   0  0  0  0  0  0  0  0  0  0  0  0
  1  2  1  0
  2  3  2  0
  3  4  1  0
  4  5  2  0
  5  6  1  0
  6  7  2  0
  7  8  1  0
  6  9  1  0
  9 10  1  0
  9 11  2  0
  4 12  1  0
 12 13  2  0
 12 14  1  0
 14 15  1  0
 15 16  1  0
 16 17  1  0
 17 18  1  0
 18 19  1  0
 19 20  1  0
 20 21  1  0
 19 22  1  0
 22 23  2  0
 23 24  1  0
 24 25  2  0
 25 26  1  0
 26 27  2  0
 24 28  1  0
 28 29  1  0
 28 30  1  0
 28 31  1  0
  7  2  1  0
 21 16  1  0
 27 22  1  0
  1 32  1  0
  3 33  1  0
  5 34  1  0
  8 35  1  0
 14 36  1  0
 14 37  1  0
 15 38  1  0
 15 39  1  0
 17 40  1  0
 17 41  1  0
 18 42  1  0
 18 43  1  0
 20 44  1  0
 20 45  1  0
 21 46  1  0
 21 47  1  0
 23 48  1  0
 25 49  1  0
 26 50  1  0
 27 51  1  0
M  CHG  2   9   1  10  -1
M  END
$$$$
