
     RDKit          3D

 40 42  0  0  0  0  0  0  0  0999 V2000
    4.6934    2.4842    0.3009 C   0  0  0  0  0  0  0  0  0  0  0  0
    3.6755    1.3860    0.2150 C   0  0  0  0  0  0  0  0  0  0  0  0
    3.8065    0.2369    1.0086 C   0  0  0  0  0  0  0  0  0  0  0  0
    2.8779   -0.8027    0.9033 C   0  0  0  0  0  0  0  0  0  0  0  0
    1.8056   -0.7087    0.0020 C   0  0  0  0  0  0  0  0  0  0  0  0
    1.6981    0.4264   -0.8185 C   0  0  0  0  0  0  0  0  0  0  0  0
    2.6263    1.4660   -0.7124 C   0  0  0  0  0  0  0  0  0  0  0  0
    0.8323   -1.8180   -0.1104 C   0  0  0  0  0  0  0  0  0  0  0  0
    1.1647   -3.1589   -0.1450 C   0  0  0  0  0  0  0  0  0  0  0  0
   -0.0359   -3.8033   -0.3742 C   0  0  0  0  0  0  0  0  0  0  0  0
   -1.0364   -2.9035   -0.4407 N   0  0  0  0  0  0  0  0  0  0  0  0
   -0.5073   -1.6995   -0.2836 N   0  0  0  0  0  0  0  0  0  0  0  0
   -1.3070   -0.5063   -0.2262 C   0  0  0  0  0  0  0  0  0  0  0  0
   -1.0816    0.4662    0.7629 C   0  0  0  0  0  0  0  0  0  0  0  0
   -1.8740    1.6162    0.8158 C   0  0  0  0  0  0  0  0  0  0  0  0
   -2.9069    1.8041   -0.1116 C   0  0  0  0  0  0  0  0  0  0  0  0
   -3.1548    0.8219   -1.0794 C   0  0  0  0  0  0  0  0  0  0  0  0
   -2.3623   -0.3284   -1.1335 C   0  0  0  0  0  0  0  0  0  0  0  0
   -3.9147    3.2459   -0.0340 S   0  0  0  0  0  6  0  0  0  0  0  0
   -5.2628    2.9568    1.0083 N   0  0  0  0  0  0  0  0  0  0  0  0
   -3.1106    4.4005    0.4948 O   0  0  0  0  0  0  0  0  0  0  0  0
   -4.4104    3.5950   -1.4094 O   0  0  0  0  0  0  0  0  0  0  0  0
   -0.2342   -5.2835   -0.4487 C   0  0  0  0  0  0  0  0  0  0  0  0
   -0.2430   -5.8103    0.8290 F   0  0  0  0  0  0  0  0  0  0  0  0
    0.7926   -5.8607   -1.1735 F   0  0  0  0  0  0  0  0  0  0  0  0
   -1.4376   -5.5702   -1.0671 F   0  0  0  0  0  0  0  0  0  0  0  0
    4.2340    3.4645    0.0519 H   0  0  0  0  0  0  0  0  0  0  0  0
    5.1107    2.5520    1.3282 H   0  0  0  0  0  0  0  0  0  0  0  0
    5.5187    2.2792   -0.4125 H   0  0  0  0  0  0  0  0  0  0  0  0
    4.6267    0.1460    1.7101 H   0  0  0  0  0  0  0  0  0  0  0  0
    2.9901   -1.6762    1.5339 H   0  0  0  0  0  0  0  0  0  0  0  0
    0.9062    0.5028   -1.5527 H   0  0  0  0  0  0  0  0  0  0  0  0
    2.5293    2.3309   -1.3569 H   0  0  0  0  0  0  0  0  0  0  0  0
    2.1465   -3.6037   -0.0473 H   0  0  0  0  0  0  0  0  0  0  0  0
   -0.3019    0.3285    1.5007 H   0  0  0  0  0  0  0  0  0  0  0  0
   -1.6866    2.3549    1.5847 H   0  0  0  0  0  0  0  0  0  0  0  0
   -3.9621    0.9441   -1.7902 H   0  0  0  0  0  0  0  0  0  0  0  0
   -2.5623   -1.0767   -1.8900 H   0  0  0  0  0  0  0  0  0  0  0  0
   -5.7674    2.1239    0.6302 H   0  0  0  0  0  0  0  0  0  0  0  0
   -4.8753    2.6776    1.9374 H   0  0  0  0  0  0  0  0  0  0  0  0
  1  2  1  0
  2  3  2  0
  3  4  1  0
  4  5  2  0
  5  6  1  0
  6  7  2  0
  5  8  1  0
  8  9  2  0
  9 10  1  0
 10 11  2  0
 11 12  1  0
 12 13  1  0
 13 14  2  0
 14 15  1  0
 15 16  2  0
 16 17  1  0
 17 18  2  0
 16 19  1  0
 19 20  1  0
 19 21  2  0
 19 22  2  0
 10 23  1  0
 23 24  1  0
 23 25  1  0
 23 26  1  0
  7  2  1  0
 12  8  1  0
 18 13  1  0
  1 27  1  0
  1 28  1  0
  1 29  1  0
  3 30  1  0
  4 31  1  0
  6 32  1  0
  7 33  1  0
  9 34  1  0
 14 35  1  0
 15 36  1  0
 17 37  1  0
 18 38  1  0
 20 39  1  0
 20 40  1  0
M  END
$$$$
