
     RDKit          3D

 35 36  0  0  0  0  0  0  0  0999 V2000
   -2.8042    2.8073   -0.1653 C   0  0  0  0  0  0  0  0  0  0  0  0
   -2.9441    1.3181   -0.0111 C   0  0  0  0  0  0  0  0  0  0  0  0
   -1.8157    0.5108    0.1642 C   0  0  0  0  0  0  0  0  0  0  0  0
   -1.9351   -0.8468    0.2915 N   0  0  0  0  0  0  0  0  0  0  0  0
   -0.7228   -1.6769    0.4509 C   0  0  1  0  0  0  0  0  0  0  0  0
   -0.0941   -1.9783   -0.8971 C   0  0  0  0  0  0  0  0  0  0  0  0
    1.3573   -2.1109   -0.5575 C   0  0  0  0  0  0  0  0  0  0  0  0
    1.5070   -1.2570    0.7017 C   0  0  1  0  0  0  0  0  0  0  0  0
    2.1768    0.0902    0.4061 C   0  0  0  0  0  0  0  0  0  0  0  0
    3.5107   -0.1258    0.0074 O   0  0  0  0  0  0  0  0  0  0  0  0
    4.2050    1.3810   -0.3889 P   0  0  0  0  0  5  0  0  0  0  0  0
    4.0569    2.4603    0.9073 O   0  0  0  0  0  0  0  0  0  0  0  0
    5.8449    1.1563   -0.7382 O   0  0  0  0  0  0  0  0  0  0  0  0
    3.5198    1.9603   -1.6062 O   0  0  0  0  0  0  0  0  0  0  0  0
    0.2308   -1.0252    1.2626 O   0  0  0  0  0  0  0  0  0  0  0  0
   -3.1752   -1.4273    0.1952 C   0  0  0  0  0  0  0  0  0  0  0  0
   -3.3053   -2.6806    0.2670 O   0  0  0  0  0  0  0  0  0  0  0  0
   -4.2826   -0.6572    0.0138 N   0  0  0  0  0  0  0  0  0  0  0  0
   -4.1938    0.6940   -0.0921 C   0  0  0  0  0  0  0  0  0  0  0  0
   -5.2395    1.3767   -0.2687 O   0  0  0  0  0  0  0  0  0  0  0  0
   -3.5500    3.3286    0.4712 H   0  0  0  0  0  0  0  0  0  0  0  0
   -1.7932    3.1524    0.1395 H   0  0  0  0  0  0  0  0  0  0  0  0
   -2.9716    3.0869   -1.2265 H   0  0  0  0  0  0  0  0  0  0  0  0
   -0.8381    0.9768    0.1941 H   0  0  0  0  0  0  0  0  0  0  0  0
   -0.9720   -2.6384    0.9547 H   0  0  0  0  0  0  0  0  0  0  0  0
   -0.5025   -2.9110   -1.3437 H   0  0  0  0  0  0  0  0  0  0  0  0
   -0.2364   -1.1283   -1.6013 H   0  0  0  0  0  0  0  0  0  0  0  0
    1.5888   -3.1731   -0.3198 H   0  0  0  0  0  0  0  0  0  0  0  0
    2.0028   -1.7808   -1.4012 H   0  0  0  0  0  0  0  0  0  0  0  0
    2.1270   -1.8029    1.4470 H   0  0  0  0  0  0  0  0  0  0  0  0
    1.5955    0.6097   -0.3904 H   0  0  0  0  0  0  0  0  0  0  0  0
    2.1478    0.6993    1.3377 H   0  0  0  0  0  0  0  0  0  0  0  0
    4.5091    2.0090    1.6640 H   0  0  0  0  0  0  0  0  0  0  0  0
    6.2165    0.7186    0.0687 H   0  0  0  0  0  0  0  0  0  0  0  0
   -5.2204   -1.1154   -0.0539 H   0  0  0  0  0  0  0  0  0  0  0  0
  1  2  1  0
  2  3  2  0
  3  4  1  0
  4  5  1  0
  5  6  1  0
  6  7  1  0
  7  8  1  0
  8  9  1  0
  9 10  1  0
 10 11  1  0
 11 12  1  0
 11 13  1  0
 11 14  2  0
  8 15  1  0
  4 16  1  0
 16 17  2  0
 16 18  1  0
 18 19  1  0
 19 20  2  0
 19  2  1  0
 15  5  1  0
  1 21  1  0
  1 22  1  0
  1 23  1  0
  3 24  1  0
  5 25  1  1
  6 26  1  0
  6 27  1  0
  7 28  1  0
  7 29  1  0
  8 30  1  1
  9 31  1  0
  9 32  1  0
 12 33  1  0
 13 34  1  0
 18 35  1  0
M  END
$$$$
