
     RDKit          3D

 20 20  0  0  0  0  0  0  0  0999 V2000
    0.8049    0.5103    1.4357 N   0  0  0  0  0  0  0  0  0  0  0  0
    0.4954   -0.0588    0.1146 C   0  0  0  0  0  0  0  0  0  0  0  0
   -0.1332    1.0237   -0.7695 C   0  0  0  0  0  0  0  0  0  0  0  0
   -1.6147    1.0420   -0.4086 C   0  0  0  0  0  0  0  0  0  0  0  0
   -1.9254   -0.3046    0.2444 C   0  0  0  0  0  0  0  0  0  0  0  0
   -0.6226   -1.0969    0.2587 C   0  0  0  0  0  0  0  0  0  0  0  0
    1.7357   -0.6560   -0.5268 C   0  0  0  0  0  0  0  0  0  0  0  0
    2.9617   -0.6188    0.1334 O   0  0  0  0  0  0  0  0  0  0  0  0
    1.6652   -1.1922   -1.6663 O   0  0  0  0  0  0  0  0  0  0  0  0
    1.5410    1.2477    1.3352 H   0  0  0  0  0  0  0  0  0  0  0  0
    1.1985   -0.2363    2.0547 H   0  0  0  0  0  0  0  0  0  0  0  0
   -0.0354    0.7607   -1.8467 H   0  0  0  0  0  0  0  0  0  0  0  0
    0.3336    2.0207   -0.6110 H   0  0  0  0  0  0  0  0  0  0  0  0
   -1.8172    1.8662    0.3104 H   0  0  0  0  0  0  0  0  0  0  0  0
   -2.2378    1.1979   -1.3162 H   0  0  0  0  0  0  0  0  0  0  0  0
   -2.2816   -0.1462    1.2862 H   0  0  0  0  0  0  0  0  0  0  0  0
   -2.7106   -0.8507   -0.3229 H   0  0  0  0  0  0  0  0  0  0  0  0
   -0.6257   -1.7975   -0.6064 H   0  0  0  0  0  0  0  0  0  0  0  0
   -0.5240   -1.6956    1.1908 H   0  0  0  0  0  0  0  0  0  0  0  0
    3.7924   -1.0155   -0.2894 H   0  0  0  0  0  0  0  0  0  0  0  0
  1  2  1  0
  2  3  1  0
  3  4  1  0
  4  5  1  0
  5  6  1  0
  2  7  1  0
  7  8  1  0
  7  9  2  0
  6  2  1  0
  1 10  1  0
  1 11  1  0
  3 12  1  0
  3 13  1  0
  4 14  1  0
  4 15  1  0
  5 16  1  0
  5 17  1  0
  6 18  1  0
  6 19  1  0
  8 20  1  0
M  END
$$$$
