
     RDKit          3D

143150  0  0  0  0  0  0  0  0999 V2000
    2.5583   -6.4107    0.8858 N   0  0  0  0  0  0  0  0  0  0  0  0
    2.1179   -6.8365   -0.4398 C   0  0  0  0  0  0  0  0  0  0  0  0
    0.6248   -6.5379   -0.6478 C   0  0  0  0  0  0  0  0  0  0  0  0
    0.3337   -5.0756   -1.0270 C   0  0  0  0  0  0  0  0  0  0  0  0
    0.6555   -4.0880    0.1108 C   0  0  0  0  0  0  0  0  0  0  0  0
    0.1142   -2.6576   -0.0960 C   0  0  2  0  0  0  0  0  0  0  0  0
   -1.3439   -2.6548   -0.2740 N   0  0  0  0  0  0  0  0  0  0  0  0
   -2.2523   -2.3255    0.7897 C   0  0  0  0  0  0  0  0  0  0  0  0
   -1.8093   -2.0458    1.9378 O   0  0  0  0  0  0  0  0  0  0  0  0
   -3.7423   -2.3200    0.5511 C   0  0  1  0  0  0  0  0  0  0  0  0
   -4.4192   -3.6207    1.0324 C   0  0  0  0  0  0  0  0  0  0  0  0
   -4.1671   -3.9444    2.4800 C   0  0  0  0  0  0  0  0  0  0  0  0
   -4.8912   -3.4836    3.5761 C   0  0  0  0  0  0  0  0  0  0  0  0
   -4.3534   -3.9484    4.7269 N   0  0  0  0  0  0  0  0  0  0  0  0
   -3.2980   -4.6994    4.3674 C   0  0  0  0  0  0  0  0  0  0  0  0
   -3.1541   -4.7244    3.0040 C   0  0  0  0  0  0  0  0  0  0  0  0
   -2.1298   -5.4428    2.3868 C   0  0  0  0  0  0  0  0  0  0  0  0
   -1.2290   -6.1413    3.2110 C   0  0  0  0  0  0  0  0  0  0  0  0
   -1.3740   -6.1114    4.6157 C   0  0  0  0  0  0  0  0  0  0  0  0
   -2.4220   -5.3838    5.2089 C   0  0  0  0  0  0  0  0  0  0  0  0
   -4.3434   -1.1438    1.1928 N   0  0  0  0  0  0  0  0  0  0  0  0
   -4.6975    0.0864    0.5304 C   0  0  0  0  0  0  0  0  0  0  0  0
   -5.1170    1.0446    1.2339 O   0  0  0  0  0  0  0  0  0  0  0  0
   -4.6346    0.2797   -0.9739 C   0  0  1  0  0  0  0  0  0  0  0  0
   -3.2741    0.0231   -1.4647 N   0  0  0  0  0  0  0  0  0  0  0  0
   -2.1545    0.8983   -1.2619 C   0  0  0  0  0  0  0  0  0  0  0  0
   -1.0199    0.5258   -1.6638 O   0  0  0  0  0  0  0  0  0  0  0  0
   -2.3049    2.2963   -0.7064 C   0  0  2  0  0  0  0  0  0  0  0  0
   -2.5233    3.3009   -1.8451 C   0  0  0  0  0  0  0  0  0  0  0  0
   -1.4325    4.3669   -1.6983 C   0  0  2  0  0  0  0  0  0  0  0  0
   -0.3894    3.7599   -0.7697 C   0  0  0  0  0  0  0  0  0  0  0  0
   -1.0746    2.7053   -0.0382 N   0  0  0  0  0  0  0  0  0  0  0  0
   -0.6748    2.1516    1.2393 C   0  0  0  0  0  0  0  0  0  0  0  0
   -1.5178    1.4905    1.9053 O   0  0  0  0  0  0  0  0  0  0  0  0
    0.7160    2.3050    1.8294 C   0  0  2  0  0  0  0  0  0  0  0  0
    0.7980    3.4003    2.9188 C   0  0  0  0  0  0  0  0  0  0  0  0
    0.3414    4.7691    2.4820 C   0  0  0  0  0  0  0  0  0  0  0  0
    1.2728    5.7264    2.0434 C   0  0  0  0  0  0  0  0  0  0  0  0
    0.8413    6.9903    1.6287 C   0  0  0  0  0  0  0  0  0  0  0  0
   -0.5185    7.3112    1.6577 C   0  0  0  0  0  0  0  0  0  0  0  0
   -1.4495    6.3700    2.1045 C   0  0  0  0  0  0  0  0  0  0  0  0
   -1.0237    5.1041    2.5161 C   0  0  0  0  0  0  0  0  0  0  0  0
    1.7422    2.4644    0.7920 N   0  0  0  0  0  0  0  0  0  0  0  0
    2.1667    1.4033   -0.0872 C   0  0  0  0  0  0  0  0  0  0  0  0
    2.9226    1.6908   -1.0545 O   0  0  0  0  0  0  0  0  0  0  0  0
    1.8124   -0.0517    0.1760 C   0  0  2  0  0  0  0  0  0  0  0  0
    2.8593   -0.7093    1.1011 C   0  0  0  0  0  0  0  0  0  0  0  0
    4.2196   -0.8260    0.4574 C   0  0  0  0  0  0  0  0  0  0  0  0
    5.1787    0.1828    0.6359 C   0  0  0  0  0  0  0  0  0  0  0  0
    6.4288    0.0846    0.0190 C   0  0  0  0  0  0  0  0  0  0  0  0
    6.7412   -1.0175   -0.7849 C   0  0  0  0  0  0  0  0  0  0  0  0
    8.0089   -1.0677   -1.3827 O   0  0  0  0  0  0  0  0  0  0  0  0
    8.4616   -2.1238   -2.2251 C   0  0  0  0  0  0  0  0  0  0  0  0
    9.8621   -1.8284   -2.6753 C   0  0  0  0  0  0  0  0  0  0  0  0
   10.9577   -2.2479   -1.9028 C   0  0  0  0  0  0  0  0  0  0  0  0
   12.2613   -1.9390   -2.3041 C   0  0  0  0  0  0  0  0  0  0  0  0
   12.4788   -1.2001   -3.4704 C   0  0  0  0  0  0  0  0  0  0  0  0
   11.3927   -0.7645   -4.2347 C   0  0  0  0  0  0  0  0  0  0  0  0
   10.0875   -1.0713   -3.8369 C   0  0  0  0  0  0  0  0  0  0  0  0
    5.7798   -2.0300   -0.9659 C   0  0  0  0  0  0  0  0  0  0  0  0
    4.5293   -1.9322   -0.3493 C   0  0  0  0  0  0  0  0  0  0  0  0
    1.6664   -0.8122   -1.0752 N   0  0  0  0  0  0  0  0  0  0  0  0
    0.7909   -1.9447   -1.2533 C   0  0  0  0  0  0  0  0  0  0  0  0
    0.5776   -2.3552   -2.4258 O   0  0  0  0  0  0  0  0  0  0  0  0
   -1.9661    5.5524   -1.1052 O   0  0  0  0  0  0  0  0  0  0  0  0
   -2.7626    6.4669   -1.8023 C   0  0  0  0  0  0  0  0  0  0  0  0
   -3.0344    6.2810   -3.0207 O   0  0  0  0  0  0  0  0  0  0  0  0
   -3.2658    7.6187   -1.1199 N   0  0  0  0  0  0  0  0  0  0  0  0
   -4.1019    8.6089   -1.7985 C   0  0  0  0  0  0  0  0  0  0  0  0
   -4.5125    9.7356   -0.8466 C   0  0  0  0  0  0  0  0  0  0  0  0
   -5.3348    9.2154    0.2422 N   0  0  0  0  0  0  0  0  0  0  0  0
   -5.6575   -0.5459   -1.7484 C   0  0  0  0  0  0  0  0  0  0  0  0
   -6.6860   -1.2806   -1.1164 C   0  0  0  0  0  0  0  0  0  0  0  0
   -7.6128   -2.0019   -1.8748 C   0  0  0  0  0  0  0  0  0  0  0  0
   -7.5447   -1.9849   -3.2686 C   0  0  0  0  0  0  0  0  0  0  0  0
   -6.5547   -1.2385   -3.9088 C   0  0  0  0  0  0  0  0  0  0  0  0
   -5.6239   -0.5168   -3.1565 C   0  0  0  0  0  0  0  0  0  0  0  0
    2.1163   -7.0383    1.5964 H   0  0  0  0  0  0  0  0  0  0  0  0
    3.5896   -6.5720    0.9461 H   0  0  0  0  0  0  0  0  0  0  0  0
    2.7226   -6.3232   -1.2195 H   0  0  0  0  0  0  0  0  0  0  0  0
    2.2872   -7.9314   -0.5475 H   0  0  0  0  0  0  0  0  0  0  0  0
    0.2618   -7.1788   -1.4806 H   0  0  0  0  0  0  0  0  0  0  0  0
    0.0428   -6.8247    0.2545 H   0  0  0  0  0  0  0  0  0  0  0  0
    0.9168   -4.8145   -1.9351 H   0  0  0  0  0  0  0  0  0  0  0  0
   -0.7440   -5.0130   -1.2842 H   0  0  0  0  0  0  0  0  0  0  0  0
    1.7571   -4.0249    0.2373 H   0  0  0  0  0  0  0  0  0  0  0  0
    0.2393   -4.4793    1.0630 H   0  0  0  0  0  0  0  0  0  0  0  0
    0.3514   -2.1336    0.8442 H   0  0  0  0  0  0  0  0  0  0  0  0
   -1.7419   -2.9238   -1.2020 H   0  0  0  0  0  0  0  0  0  0  0  0
   -3.9306   -2.2906   -0.5368 H   0  0  0  0  0  0  0  0  0  0  0  0
   -4.0680   -4.4671    0.4035 H   0  0  0  0  0  0  0  0  0  0  0  0
   -5.5157   -3.5386    0.8692 H   0  0  0  0  0  0  0  0  0  0  0  0
   -5.7597   -2.8394    3.5331 H   0  0  0  0  0  0  0  0  0  0  0  0
   -4.6907   -3.7568    5.6964 H   0  0  0  0  0  0  0  0  0  0  0  0
   -2.0268   -5.4644    1.3101 H   0  0  0  0  0  0  0  0  0  0  0  0
   -0.4196   -6.7052    2.7666 H   0  0  0  0  0  0  0  0  0  0  0  0
   -0.6750   -6.6526    5.2399 H   0  0  0  0  0  0  0  0  0  0  0  0
   -2.5418   -5.3558    6.2842 H   0  0  0  0  0  0  0  0  0  0  0  0
   -4.3923   -1.1348    2.2362 H   0  0  0  0  0  0  0  0  0  0  0  0
   -4.8884    1.3391   -1.1992 H   0  0  0  0  0  0  0  0  0  0  0  0
   -3.0878   -0.8459   -2.0153 H   0  0  0  0  0  0  0  0  0  0  0  0
   -3.1441    2.3648    0.0153 H   0  0  0  0  0  0  0  0  0  0  0  0
   -2.4288    2.8229   -2.8463 H   0  0  0  0  0  0  0  0  0  0  0  0
   -3.5408    3.7443   -1.7792 H   0  0  0  0  0  0  0  0  0  0  0  0
   -0.9693    4.6115   -2.6808 H   0  0  0  0  0  0  0  0  0  0  0  0
    0.0208    4.5311   -0.0962 H   0  0  0  0  0  0  0  0  0  0  0  0
    0.4330    3.3175   -1.3709 H   0  0  0  0  0  0  0  0  0  0  0  0
    0.9454    1.3688    2.3831 H   0  0  0  0  0  0  0  0  0  0  0  0
    0.1825    3.0827    3.7898 H   0  0  0  0  0  0  0  0  0  0  0  0
    1.8441    3.4554    3.2932 H   0  0  0  0  0  0  0  0  0  0  0  0
    2.3298    5.4932    2.0170 H   0  0  0  0  0  0  0  0  0  0  0  0
    1.5616    7.7214    1.2853 H   0  0  0  0  0  0  0  0  0  0  0  0
   -0.8502    8.2900    1.3362 H   0  0  0  0  0  0  0  0  0  0  0  0
   -2.5021    6.6199    2.1304 H   0  0  0  0  0  0  0  0  0  0  0  0
   -1.7572    4.3838    2.8565 H   0  0  0  0  0  0  0  0  0  0  0  0
    2.1719    3.4054    0.6476 H   0  0  0  0  0  0  0  0  0  0  0  0
    0.8326   -0.0564    0.6847 H   0  0  0  0  0  0  0  0  0  0  0  0
    2.9378   -0.1239    2.0434 H   0  0  0  0  0  0  0  0  0  0  0  0
    2.5172   -1.7212    1.4020 H   0  0  0  0  0  0  0  0  0  0  0  0
    4.9564    1.0480    1.2484 H   0  0  0  0  0  0  0  0  0  0  0  0
    7.1589    0.8708    0.1643 H   0  0  0  0  0  0  0  0  0  0  0  0
    8.4375   -3.0859   -1.6680 H   0  0  0  0  0  0  0  0  0  0  0  0
    7.7912   -2.2146   -3.1077 H   0  0  0  0  0  0  0  0  0  0  0  0
   10.8025   -2.8125   -0.9916 H   0  0  0  0  0  0  0  0  0  0  0  0
   13.1028   -2.2691   -1.7088 H   0  0  0  0  0  0  0  0  0  0  0  0
   13.4882   -0.9606   -3.7788 H   0  0  0  0  0  0  0  0  0  0  0  0
   11.5620   -0.1857   -5.1335 H   0  0  0  0  0  0  0  0  0  0  0  0
    9.2544   -0.7191   -4.4326 H   0  0  0  0  0  0  0  0  0  0  0  0
    5.9871   -2.8945   -1.5815 H   0  0  0  0  0  0  0  0  0  0  0  0
    3.8010   -2.7183   -0.5039 H   0  0  0  0  0  0  0  0  0  0  0  0
    2.2173   -0.5148   -1.9122 H   0  0  0  0  0  0  0  0  0  0  0  0
   -3.0181    7.7412   -0.1125 H   0  0  0  0  0  0  0  0  0  0  0  0
   -3.5334    9.0463   -2.6475 H   0  0  0  0  0  0  0  0  0  0  0  0
   -5.0115    8.1142   -2.2032 H   0  0  0  0  0  0  0  0  0  0  0  0
   -3.6002   10.2147   -0.4280 H   0  0  0  0  0  0  0  0  0  0  0  0
   -5.0808   10.5072   -1.4125 H   0  0  0  0  0  0  0  0  0  0  0  0
   -5.5274   10.0050    0.9001 H   0  0  0  0  0  0  0  0  0  0  0  0
   -6.2589    8.9272   -0.1546 H   0  0  0  0  0  0  0  0  0  0  0  0
   -6.7847   -1.3040   -0.0402 H   0  0  0  0  0  0  0  0  0  0  0  0
   -8.3896   -2.5704   -1.3799 H   0  0  0  0  0  0  0  0  0  0  0  0
   -8.2653   -2.5426   -3.8528 H   0  0  0  0  0  0  0  0  0  0  0  0
   -6.5105   -1.2150   -4.9900 H   0  0  0  0  0  0  0  0  0  0  0  0
   -4.8724    0.0667   -3.6742 H   0  0  0  0  0  0  0  0  0  0  0  0
  1  2  1  0
  2  3  1  0
  3  4  1  0
  4  5  1  0
  5  6  1  0
  6  7  1  0
  7  8  1  0
  8  9  2  0
  8 10  1  0
 10 11  1  0
 11 12  1  0
 12 13  2  0
 13 14  1  0
 14 15  1  0
 15 16  2  0
 16 17  1  0
 17 18  2  0
 18 19  1  0
 19 20  2  0
 10 21  1  0
 21 22  1  0
 22 23  2  0
 22 24  1  0
 24 25  1  0
 25 26  1  0
 26 27  2  0
 26 28  1  0
 28 29  1  0
 29 30  1  0
 30 31  1  0
 31 32  1  0
 32 33  1  0
 33 34  2  0
 33 35  1  0
 35 36  1  0
 36 37  1  0
 37 38  2  0
 38 39  1  0
 39 40  2  0
 40 41  1  0
 41 42  2  0
 35 43  1  0
 43 44  1  0
 44 45  2  0
 44 46  1  0
 46 47  1  0
 47 48  1  0
 48 49  2  0
 49 50  1  0
 50 51  2  0
 51 52  1  0
 52 53  1  0
 53 54  1  0
 54 55  2  0
 55 56  1  0
 56 57  2  0
 57 58  1  0
 58 59  2  0
 51 60  1  0
 60 61  2  0
 46 62  1  0
 62 63  1  0
 63 64  2  0
 30 65  1  0
 65 66  1  0
 66 67  2  0
 66 68  1  0
 68 69  1  0
 69 70  1  0
 70 71  1  0
 24 72  1  0
 72 73  2  0
 73 74  1  0
 74 75  2  0
 75 76  1  0
 76 77  2  0
 63  6  1  0
 77 72  1  0
 16 12  1  0
 32 28  1  0
 42 37  1  0
 61 48  1  0
 20 15  1  0
 59 54  1  0
  1 78  1  0
  1 79  1  0
  2 80  1  0
  2 81  1  0
  3 82  1  0
  3 83  1  0
  4 84  1  0
  4 85  1  0
  5 86  1  0
  5 87  1  0
  6 88  1  1
  7 89  1  0
 10 90  1  6
 11 91  1  0
 11 92  1  0
 13 93  1  0
 14 94  1  0
 17 95  1  0
 18 96  1  0
 19 97  1  0
 20 98  1  0
 21 99  1  0
 24100  1  1
 25101  1  0
 28102  1  1
 29103  1  0
 29104  1  0
 30105  1  6
 31106  1  0
 31107  1  0
 35108  1  1
 36109  1  0
 36110  1  0
 38111  1  0
 39112  1  0
 40113  1  0
 41114  1  0
 42115  1  0
 43116  1  0
 46117  1  1
 47118  1  0
 47119  1  0
 49120  1  0
 50121  1  0
 53122  1  0
 53123  1  0
 55124  1  0
 56125  1  0
 57126  1  0
 58127  1  0
 59128  1  0
 60129  1  0
 61130  1  0
 62131  1  0
 68132  1  0
 69133  1  0
 69134  1  0
 70135  1  0
 70136  1  0
 71137  1  0
 71138  1  0
 73139  1  0
 74140  1  0
 75141  1  0
 76142  1  0
 77143  1  0
M  END
$$$$
