
     RDKit          3D

122124  0  0  0  0  0  0  0  0999 V2000
   -4.0399    0.0633   -3.4966 C   0  0  0  0  0  0  0  0  0  0  0  0
   -3.1448   -0.1382   -2.4223 O   0  0  0  0  0  0  0  0  0  0  0  0
   -3.7901   -0.7754   -1.3285 C   0  0  1  0  0  0  0  0  0  0  0  0
   -3.5120   -2.3152   -1.3734 C   0  0  2  0  0  0  0  0  0  0  0  0
   -3.2116   -2.7301   -2.6837 O   0  0  0  0  0  0  0  0  0  0  0  0
   -4.6852   -3.1491   -0.8070 C   0  0  0  0  0  0  0  0  0  0  0  0
   -5.9243   -3.0778   -1.6721 C   0  0  0  0  0  0  0  0  0  0  0  0
   -5.8603   -3.5117   -2.8526 O   0  0  0  0  0  0  0  0  0  0  0  0
   -7.1461   -2.5449   -1.2343 O   0  0  0  0  0  0  0  0  0  0  0  0
   -7.5115   -2.2659    0.1199 C   0  0  2  0  0  0  0  0  0  0  0  0
   -7.7828   -3.5748    0.8663 C   0  0  0  0  0  0  0  0  0  0  0  0
   -8.7665   -1.3801    0.1175 C   0  0  0  0  0  0  0  0  0  0  0  0
   -8.4233   -0.0292   -0.4384 C   0  0  0  0  0  0  0  0  0  0  0  0
   -8.1339    0.9963    0.3712 C   0  0  0  0  0  0  0  0  0  0  0  0
   -7.4923    2.2466   -0.0790 C   0  0  0  0  0  0  0  0  0  0  0  0
   -6.7146    2.3210   -1.1685 C   0  0  0  0  0  0  0  0  0  0  0  0
   -5.8245    3.5062   -1.4133 C   0  0  2  0  0  0  0  0  0  0  0  0
   -5.3116    3.4307   -2.7199 O   0  0  0  0  0  0  0  0  0  0  0  0
   -4.6687    3.5769   -0.3694 C   0  0  2  0  0  0  0  0  0  0  0  0
   -3.9116    4.9066   -0.5187 C   0  0  0  0  0  0  0  0  0  0  0  0
   -3.6640    2.3807   -0.4496 C   0  0  0  0  0  0  0  0  0  0  0  0
   -4.0389    1.1428    0.4195 C   0  0  2  0  0  0  0  0  0  0  0  0
   -3.8128    1.4358    1.9287 C   0  0  0  0  0  0  0  0  0  0  0  0
   -4.5980    0.5086    2.8148 C   0  0  0  0  0  0  0  0  0  0  0  0
   -4.4846    0.5850    4.0273 O   0  0  0  0  0  0  0  0  0  0  0  0
   -3.2625   -0.1531    0.0040 C   0  0  2  0  0  0  0  0  0  0  0  0
   -1.8635    0.1277   -0.1089 O   0  0  0  0  0  0  0  0  0  0  0  0
   -1.0337   -0.7084    0.6952 C   0  0  2  0  0  0  0  0  0  0  0  0
   -0.5022    0.0157    1.7969 O   0  0  0  0  0  0  0  0  0  0  0  0
    0.5152    0.9544    1.4652 C   0  0  2  0  0  0  0  0  0  0  0  0
   -0.0470    2.2669    0.9031 C   0  0  0  0  0  0  0  0  0  0  0  0
    1.6785    0.3640    0.6316 C   0  0  1  0  0  0  0  0  0  0  0  0
    2.4044   -0.5292    1.4663 O   0  0  0  0  0  0  0  0  0  0  0  0
    3.7818   -0.5854    1.1319 C   0  0  1  0  0  0  0  0  0  0  0  0
    4.5531    0.3960    2.0333 C   0  0  0  0  0  0  0  0  0  0  0  0
    6.0634    0.4236    1.6686 C   0  0  1  0  0  0  0  0  0  0  0  0
    6.3631    1.6006    0.7150 C   0  0  0  0  0  0  0  0  0  0  0  0
    6.8203    0.5820    2.8480 O   0  0  0  0  0  0  0  0  0  0  0  0
    6.4797   -0.9092    0.9799 C   0  0  1  0  0  0  0  0  0  0  0  0
    7.8715   -1.1526    1.2172 O   0  0  0  0  0  0  0  0  0  0  0  0
    8.7663   -1.6217    0.2477 C   0  0  0  0  0  0  0  0  0  0  0  0
    8.3969   -1.7994   -0.9450 O   0  0  0  0  0  0  0  0  0  0  0  0
   10.1910   -1.8823    0.6291 C   0  0  0  0  0  0  0  0  0  0  0  0
   11.0939   -0.6670    0.3355 C   0  0  0  0  0  0  0  0  0  0  0  0
   10.7579    0.5201    1.2508 C   0  0  0  0  0  0  0  0  0  0  0  0
   12.5690   -1.0527    0.5002 C   0  0  0  0  0  0  0  0  0  0  0  0
    5.6197   -2.0840    1.5236 C   0  0  2  0  0  0  0  0  0  0  0  0
    6.0416   -3.4164    0.9009 C   0  0  0  0  0  0  0  0  0  0  0  0
    4.2167   -1.9266    1.3120 O   0  0  0  0  0  0  0  0  0  0  0  0
    1.1594   -0.3937   -0.6309 C   0  0  1  0  0  0  0  0  0  0  0  0
    0.0642   -1.3915   -0.1631 C   0  0  1  0  0  0  0  0  0  0  0  0
    0.6549   -2.4809    0.5126 O   0  0  0  0  0  0  0  0  0  0  0  0
    0.6823    0.5227   -1.7208 N   0  0  0  0  0  0  0  0  0  0  0  0
    1.7264    1.4980   -2.1128 C   0  0  0  0  0  0  0  0  0  0  0  0
    0.2909   -0.2310   -2.9344 C   0  0  0  0  0  0  0  0  0  0  0  0
   -4.5496   -0.8779   -3.7974 H   0  0  0  0  0  0  0  0  0  0  0  0
   -4.7950    0.8329   -3.2382 H   0  0  0  0  0  0  0  0  0  0  0  0
   -3.4658    0.4328   -4.3706 H   0  0  0  0  0  0  0  0  0  0  0  0
   -4.8958   -0.6170   -1.3504 H   0  0  0  0  0  0  0  0  0  0  0  0
   -2.6284   -2.5390   -0.7386 H   0  0  0  0  0  0  0  0  0  0  0  0
   -2.7801   -3.6222   -2.6168 H   0  0  0  0  0  0  0  0  0  0  0  0
   -4.8812   -2.8363    0.2353 H   0  0  0  0  0  0  0  0  0  0  0  0
   -4.3704   -4.2135   -0.7516 H   0  0  0  0  0  0  0  0  0  0  0  0
   -6.7019   -1.7078    0.6384 H   0  0  0  0  0  0  0  0  0  0  0  0
   -8.6063   -4.1359    0.3751 H   0  0  0  0  0  0  0  0  0  0  0  0
   -6.8737   -4.2112    0.8700 H   0  0  0  0  0  0  0  0  0  0  0  0
   -8.0633   -3.3652    1.9205 H   0  0  0  0  0  0  0  0  0  0  0  0
   -9.1740   -1.2847    1.1488 H   0  0  0  0  0  0  0  0  0  0  0  0
   -9.5547   -1.8421   -0.5158 H   0  0  0  0  0  0  0  0  0  0  0  0
   -8.2790    0.0479   -1.5078 H   0  0  0  0  0  0  0  0  0  0  0  0
   -8.3135    0.8985    1.4351 H   0  0  0  0  0  0  0  0  0  0  0  0
   -7.5168    3.0842    0.6075 H   0  0  0  0  0  0  0  0  0  0  0  0
   -6.6268    1.4795   -1.8410 H   0  0  0  0  0  0  0  0  0  0  0  0
   -6.4634    4.4173   -1.3162 H   0  0  0  0  0  0  0  0  0  0  0  0
   -5.1675    4.3613   -3.0337 H   0  0  0  0  0  0  0  0  0  0  0  0
   -5.1332    3.6118    0.6367 H   0  0  0  0  0  0  0  0  0  0  0  0
   -3.1866    5.0281    0.3146 H   0  0  0  0  0  0  0  0  0  0  0  0
   -4.6171    5.7639   -0.4813 H   0  0  0  0  0  0  0  0  0  0  0  0
   -3.3544    4.9377   -1.4793 H   0  0  0  0  0  0  0  0  0  0  0  0
   -2.6631    2.7225   -0.1216 H   0  0  0  0  0  0  0  0  0  0  0  0
   -3.5407    2.0938   -1.5090 H   0  0  0  0  0  0  0  0  0  0  0  0
   -5.1171    0.9380    0.2876 H   0  0  0  0  0  0  0  0  0  0  0  0
   -4.1091    2.4704    2.1905 H   0  0  0  0  0  0  0  0  0  0  0  0
   -2.7376    1.3410    2.1782 H   0  0  0  0  0  0  0  0  0  0  0  0
   -5.2710   -0.2319    2.3931 H   0  0  0  0  0  0  0  0  0  0  0  0
   -3.5076   -0.8907    0.8002 H   0  0  0  0  0  0  0  0  0  0  0  0
   -1.5913   -1.5609    1.1418 H   0  0  0  0  0  0  0  0  0  0  0  0
    0.9708    1.2515    2.4360 H   0  0  0  0  0  0  0  0  0  0  0  0
   -0.8543    2.6460    1.5623 H   0  0  0  0  0  0  0  0  0  0  0  0
   -0.4388    2.1454   -0.1221 H   0  0  0  0  0  0  0  0  0  0  0  0
    0.7524    3.0376    0.8736 H   0  0  0  0  0  0  0  0  0  0  0  0
    2.3311    1.2196    0.3582 H   0  0  0  0  0  0  0  0  0  0  0  0
    3.9609   -0.3184    0.0624 H   0  0  0  0  0  0  0  0  0  0  0  0
    4.1090    1.4132    1.9661 H   0  0  0  0  0  0  0  0  0  0  0  0
    4.4250    0.0624    3.0874 H   0  0  0  0  0  0  0  0  0  0  0  0
    6.1294    2.5706    1.2037 H   0  0  0  0  0  0  0  0  0  0  0  0
    7.4369    1.6052    0.4326 H   0  0  0  0  0  0  0  0  0  0  0  0
    5.7528    1.5227   -0.2106 H   0  0  0  0  0  0  0  0  0  0  0  0
    6.5383    1.4303    3.2819 H   0  0  0  0  0  0  0  0  0  0  0  0
    6.2875   -0.8305   -0.1149 H   0  0  0  0  0  0  0  0  0  0  0  0
   10.5494   -2.7645    0.0543 H   0  0  0  0  0  0  0  0  0  0  0  0
   10.2417   -2.1464    1.7081 H   0  0  0  0  0  0  0  0  0  0  0  0
   10.9425   -0.3507   -0.7210 H   0  0  0  0  0  0  0  0  0  0  0  0
   10.8692    0.2361    2.3193 H   0  0  0  0  0  0  0  0  0  0  0  0
   11.4345    1.3744    1.0351 H   0  0  0  0  0  0  0  0  0  0  0  0
    9.7175    0.8631    1.0772 H   0  0  0  0  0  0  0  0  0  0  0  0
   12.8302   -1.8783   -0.1957 H   0  0  0  0  0  0  0  0  0  0  0  0
   12.7740   -1.3825    1.5416 H   0  0  0  0  0  0  0  0  0  0  0  0
   13.2221   -0.1858    0.2628 H   0  0  0  0  0  0  0  0  0  0  0  0
    5.7937   -2.1652    2.6198 H   0  0  0  0  0  0  0  0  0  0  0  0
    5.9618   -3.3689   -0.2061 H   0  0  0  0  0  0  0  0  0  0  0  0
    7.0835   -3.6723    1.1861 H   0  0  0  0  0  0  0  0  0  0  0  0
    5.3798   -4.2291    1.2689 H   0  0  0  0  0  0  0  0  0  0  0  0
    2.0023   -1.0000   -1.0348 H   0  0  0  0  0  0  0  0  0  0  0  0
   -0.4324   -1.8499   -1.0335 H   0  0  0  0  0  0  0  0  0  0  0  0
    0.6826   -2.2895    1.4854 H   0  0  0  0  0  0  0  0  0  0  0  0
    2.7257    1.0153   -2.1947 H   0  0  0  0  0  0  0  0  0  0  0  0
    1.7643    2.3366   -1.3904 H   0  0  0  0  0  0  0  0  0  0  0  0
    1.4950    1.9917   -3.0816 H   0  0  0  0  0  0  0  0  0  0  0  0
    0.1249    0.4446   -3.8016 H   0  0  0  0  0  0  0  0  0  0  0  0
    1.0610   -0.9836   -3.2136 H   0  0  0  0  0  0  0  0  0  0  0  0
   -0.6879   -0.7236   -2.7968 H   0  0  0  0  0  0  0  0  0  0  0  0
  1  2  1  0
  2  3  1  0
  3  4  1  0
  4  5  1  0
  4  6  1  0
  6  7  1  0
  7  8  2  0
  7  9  1  0
  9 10  1  0
 10 11  1  0
 10 12  1  0
 12 13  1  0
 13 14  2  0
 14 15  1  0
 15 16  2  0
 16 17  1  0
 17 18  1  0
 17 19  1  0
 19 20  1  0
 19 21  1  0
 21 22  1  0
 22 23  1  0
 23 24  1  0
 24 25  2  0
 22 26  1  0
 26 27  1  0
 27 28  1  0
 28 29  1  0
 29 30  1  0
 30 31  1  0
 30 32  1  0
 32 33  1  0
 33 34  1  0
 34 35  1  0
 35 36  1  0
 36 37  1  0
 36 38  1  1
 36 39  1  0
 39 40  1  0
 40 41  1  0
 41 42  2  0
 41 43  1  0
 43 44  1  0
 44 45  1  0
 44 46  1  0
 39 47  1  0
 47 48  1  0
 47 49  1  0
 32 50  1  0
 50 51  1  0
 51 52  1  0
 50 53  1  0
 53 54  1  0
 53 55  1  0
 26  3  1  0
 51 28  1  0
 49 34  1  0
  1 56  1  0
  1 57  1  0
  1 58  1  0
  3 59  1  6
  4 60  1  1
  5 61  1  0
  6 62  1  0
  6 63  1  0
 10 64  1  1
 11 65  1  0
 11 66  1  0
 11 67  1  0
 12 68  1  0
 12 69  1  0
 13 70  1  0
 14 71  1  0
 15 72  1  0
 16 73  1  0
 17 74  1  6
 18 75  1  0
 19 76  1  1
 20 77  1  0
 20 78  1  0
 20 79  1  0
 21 80  1  0
 21 81  1  0
 22 82  1  1
 23 83  1  0
 23 84  1  0
 24 85  1  0
 26 86  1  1
 28 87  1  1
 30 88  1  1
 31 89  1  0
 31 90  1  0
 31 91  1  0
 32 92  1  6
 34 93  1  6
 35 94  1  0
 35 95  1  0
 37 96  1  0
 37 97  1  0
 37 98  1  0
 38 99  1  0
 39100  1  6
 43101  1  0
 43102  1  0
 44103  1  0
 45104  1  0
 45105  1  0
 45106  1  0
 46107  1  0
 46108  1  0
 46109  1  0
 47110  1  1
 48111  1  0
 48112  1  0
 48113  1  0
 50114  1  6
 51115  1  6
 52116  1  0
 54117  1  0
 54118  1  0
 54119  1  0
 55120  1  0
 55121  1  0
 55122  1  0
M  END
$$$$
