
     RDKit          3D

 45 45  0  0  0  0  0  0  0  0999 V2000
    2.4562   -0.6564    0.4002 C   0  0  0  0  0  0  0  0  0  0  0  0
    2.1822   -1.9440    1.1177 C   0  0  0  0  0  0  0  0  0  0  0  0
    3.5584   -2.3765    2.2254 P   0  0  0  0  0  5  0  0  0  0  0  0
    4.9751   -2.5570    1.3180 O   0  0  0  0  0  0  0  0  0  0  0  0
    3.7743   -1.1498    3.3716 O   0  0  0  0  0  0  0  0  0  0  0  0
    3.2440   -3.6763    2.9308 O   0  0  0  0  0  0  0  0  0  0  0  0
    1.5372   -0.1252   -0.4091 C   0  0  0  0  0  0  0  0  0  0  0  0
    1.7633    1.1518   -1.1229 C   0  0  0  0  0  0  0  0  0  0  0  0
    0.8716    2.1022   -1.1147 N   0  0  0  0  0  0  0  0  0  0  0  0
   -0.4063    2.1038   -0.3970 C   0  0  0  0  0  0  0  0  0  0  0  0
   -1.4156    1.1666   -1.0438 C   0  0  0  0  0  0  0  0  0  0  0  0
   -2.0764    0.1539   -0.2907 C   0  0  0  0  0  0  0  0  0  0  0  0
   -1.8804    0.0253    1.2106 C   0  0  0  0  0  0  0  0  0  0  0  0
   -2.7586   -0.9253    1.7706 O   0  0  0  0  0  0  0  0  0  0  0  0
   -2.4470   -1.0328    3.4450 P   0  0  0  0  0  5  0  0  0  0  0  0
   -0.8360   -1.4764    3.7156 O   0  0  0  0  0  0  0  0  0  0  0  0
   -3.4605   -2.2082    4.1185 O   0  0  0  0  0  0  0  0  0  0  0  0
   -2.7214    0.2968    4.1121 O   0  0  0  0  0  0  0  0  0  0  0  0
   -2.9121   -0.7498   -0.9731 C   0  0  0  0  0  0  0  0  0  0  0  0
   -3.1270   -0.6242   -2.3046 N   0  0  0  0  0  0  0  0  0  0  0  0
   -2.5642    0.3670   -3.0384 C   0  0  0  0  0  0  0  0  0  0  0  0
   -2.8777    0.4604   -4.5006 C   0  0  0  0  0  0  0  0  0  0  0  0
   -1.7171    1.3003   -2.4237 C   0  0  0  0  0  0  0  0  0  0  0  0
   -1.2045    2.3455   -3.2002 O   0  0  0  0  0  0  0  0  0  0  0  0
    3.0042    1.3694   -1.8907 C   0  0  0  0  0  0  0  0  0  0  0  0
    3.2494    2.6102   -2.4726 O   0  0  0  0  0  0  0  0  0  0  0  0
    3.8389    0.4368   -2.0408 O   0  0  0  0  0  0  0  0  0  0  0  0
    3.3969   -0.1404    0.5569 H   0  0  0  0  0  0  0  0  0  0  0  0
    2.0438   -2.7608    0.3782 H   0  0  0  0  0  0  0  0  0  0  0  0
    1.2572   -1.8448    1.7232 H   0  0  0  0  0  0  0  0  0  0  0  0
    5.6885   -2.7011    1.9897 H   0  0  0  0  0  0  0  0  0  0  0  0
    2.8971   -1.0683    3.8245 H   0  0  0  0  0  0  0  0  0  0  0  0
    0.5885   -0.6283   -0.5302 H   0  0  0  0  0  0  0  0  0  0  0  0
   -0.8238    3.1319   -0.4203 H   0  0  0  0  0  0  0  0  0  0  0  0
   -0.2068    1.8799    0.6688 H   0  0  0  0  0  0  0  0  0  0  0  0
   -2.0782    1.0223    1.6650 H   0  0  0  0  0  0  0  0  0  0  0  0
   -0.8250   -0.2729    1.3934 H   0  0  0  0  0  0  0  0  0  0  0  0
   -0.7462   -2.3661    3.2899 H   0  0  0  0  0  0  0  0  0  0  0  0
   -4.3745   -1.9376    3.8492 H   0  0  0  0  0  0  0  0  0  0  0  0
   -3.4042   -1.5606   -0.4541 H   0  0  0  0  0  0  0  0  0  0  0  0
   -3.5222   -0.3870   -4.8176 H   0  0  0  0  0  0  0  0  0  0  0  0
   -1.9377    0.4288   -5.0910 H   0  0  0  0  0  0  0  0  0  0  0  0
   -3.4123    1.4108   -4.7099 H   0  0  0  0  0  0  0  0  0  0  0  0
   -0.6841    3.1245   -2.8199 H   0  0  0  0  0  0  0  0  0  0  0  0
    4.0928    2.7753   -3.0089 H   0  0  0  0  0  0  0  0  0  0  0  0
  1  2  1  0
  2  3  1  0
  3  4  1  0
  3  5  1  0
  3  6  2  0
  1  7  2  0
  7  8  1  0
  8  9  2  0
  9 10  1  0
 10 11  1  0
 11 12  2  0
 12 13  1  0
 13 14  1  0
 14 15  1  0
 15 16  1  0
 15 17  1  0
 15 18  2  0
 12 19  1  0
 19 20  2  0
 20 21  1  0
 21 22  1  0
 21 23  2  0
 23 24  1  0
  8 25  1  0
 25 26  1  0
 25 27  2  0
 23 11  1  0
  1 28  1  0
  2 29  1  0
  2 30  1  0
  4 31  1  0
  5 32  1  0
  7 33  1  0
 10 34  1  0
 10 35  1  0
 13 36  1  0
 13 37  1  0
 16 38  1  0
 17 39  1  0
 19 40  1  0
 22 41  1  0
 22 42  1  0
 22 43  1  0
 24 44  1  0
 26 45  1  0
M  END
$$$$
