
     RDKit          3D

107111  0  0  0  0  0  0  0  0999 V2000
    4.0773    5.1286    1.1684 C   0  0  0  0  0  0  0  0  0  0  0  0
    4.6637    3.9734    0.3522 C   0  0  0  0  0  0  0  0  0  0  0  0
    4.8728    2.7357    1.2278 C   0  0  0  0  0  0  0  0  0  0  0  0
    3.7697    3.6441   -0.8090 C   0  0  0  0  0  0  0  0  0  0  0  0
    2.4783    3.2661   -0.6817 N   0  0  0  0  0  0  0  0  0  0  0  0
    1.9055    3.0011   -1.8871 C   0  0  0  0  0  0  0  0  0  0  0  0
    0.4831    2.5436   -2.0051 C   0  0  0  0  0  0  0  0  0  0  0  0
    0.4249    1.1961   -2.5918 N   0  0  0  0  0  0  0  0  0  0  0  0
   -0.0217    1.0318   -3.9801 C   0  0  0  0  0  0  0  0  0  0  0  0
    0.8491    0.0240   -1.8572 C   0  0  0  0  0  0  0  0  0  0  0  0
    0.7984   -1.1062   -2.4169 O   0  0  0  0  0  0  0  0  0  0  0  0
    1.3317    0.1186   -0.5034 N   0  0  0  0  0  0  0  0  0  0  0  0
    1.8066   -1.0451    0.2493 C   0  0  1  0  0  0  0  0  0  0  0  0
    3.0773   -0.6690    1.0371 C   0  0  0  0  0  0  0  0  0  0  0  0
    3.7394   -1.9071    1.6864 C   0  0  0  0  0  0  0  0  0  0  0  0
    4.9969   -1.6231    2.4125 N   0  0  0  0  0  0  0  0  0  0  0  0
    6.1470   -1.3483    1.5288 C   0  0  0  0  0  0  0  0  0  0  0  0
    7.3603   -0.8701    2.3493 C   0  0  0  0  0  0  0  0  0  0  0  0
    7.2358   -1.2694    3.7001 O   0  0  0  0  0  0  0  0  0  0  0  0
    6.1597   -0.5783    4.3157 C   0  0  0  0  0  0  0  0  0  0  0  0
    4.8683   -0.6084    3.4704 C   0  0  0  0  0  0  0  0  0  0  0  0
    0.6950   -1.5207    1.1479 C   0  0  0  0  0  0  0  0  0  0  0  0
    0.4762   -0.9275    2.2391 O   0  0  0  0  0  0  0  0  0  0  0  0
   -0.1662   -2.5858    0.7136 N   0  0  0  0  0  0  0  0  0  0  0  0
   -1.5061   -2.8460    1.2622 C   0  0  2  0  0  0  0  0  0  0  0  0
   -2.4099   -1.5985    1.1525 C   0  0  0  0  0  0  0  0  0  0  0  0
   -2.5903   -1.1381   -0.3075 C   0  0  0  0  0  0  0  0  0  0  0  0
   -3.0824    0.3219   -0.4229 C   0  0  2  0  0  0  0  0  0  0  0  0
   -4.5100    0.5347    0.1385 C   0  0  0  0  0  0  0  0  0  0  0  0
   -5.5866   -0.0880   -0.7185 C   0  0  0  0  0  0  0  0  0  0  0  0
   -6.0128   -1.4062   -0.4842 C   0  0  0  0  0  0  0  0  0  0  0  0
   -6.9946   -1.9842   -1.2950 C   0  0  0  0  0  0  0  0  0  0  0  0
   -7.5598   -1.2514   -2.3423 C   0  0  0  0  0  0  0  0  0  0  0  0
   -7.1467    0.0623   -2.5787 C   0  0  0  0  0  0  0  0  0  0  0  0
   -6.1661    0.6439   -1.7703 C   0  0  0  0  0  0  0  0  0  0  0  0
   -3.0081    0.7596   -1.8214 N   0  0  0  0  0  0  0  0  0  0  0  0
   -3.0375    2.1382   -2.2027 C   0  0  0  0  0  0  0  0  0  0  0  0
   -3.0330    3.0437   -1.3240 O   0  0  0  0  0  0  0  0  0  0  0  0
   -3.0851    2.4669   -3.5608 O   0  0  0  0  0  0  0  0  0  0  0  0
   -3.3686    3.7800   -4.0343 C   0  0  0  0  0  0  0  0  0  0  0  0
   -4.8131    4.0986   -3.8114 C   0  0  0  0  0  0  0  0  0  0  0  0
   -5.8849    3.5175   -4.4772 C   0  0  0  0  0  0  0  0  0  0  0  0
   -7.1087    3.9037   -4.0283 N   0  0  0  0  0  0  0  0  0  0  0  0
   -7.0245    4.7809   -3.0034 C   0  0  0  0  0  0  0  0  0  0  0  0
   -5.4210    5.1047   -2.6100 S   0  0  0  0  0  0  0  0  0  0  0  0
   -1.4303   -3.3529    2.7169 C   0  0  0  0  0  0  0  0  0  0  0  0
   -0.4915   -4.5253    2.8479 C   0  0  0  0  0  0  0  0  0  0  0  0
   -0.8863   -5.8005    2.4105 C   0  0  0  0  0  0  0  0  0  0  0  0
    0.0004   -6.8788    2.4924 C   0  0  0  0  0  0  0  0  0  0  0  0
    1.2870   -6.6906    3.0053 C   0  0  0  0  0  0  0  0  0  0  0  0
    1.6887   -5.4241    3.4383 C   0  0  0  0  0  0  0  0  0  0  0  0
    0.8043   -4.3443    3.3608 C   0  0  0  0  0  0  0  0  0  0  0  0
    2.7409    3.1689   -2.9889 C   0  0  0  0  0  0  0  0  0  0  0  0
    4.2459    3.6578   -2.4216 S   0  0  0  0  0  0  0  0  0  0  0  0
    4.7681    5.4007    1.9948 H   0  0  0  0  0  0  0  0  0  0  0  0
    3.9413    6.0217    0.5213 H   0  0  0  0  0  0  0  0  0  0  0  0
    3.0939    4.8465    1.6029 H   0  0  0  0  0  0  0  0  0  0  0  0
    5.6550    4.2939   -0.0371 H   0  0  0  0  0  0  0  0  0  0  0  0
    5.3126    1.9128    0.6252 H   0  0  0  0  0  0  0  0  0  0  0  0
    5.5719    2.9673    2.0594 H   0  0  0  0  0  0  0  0  0  0  0  0
    3.9073    2.3923    1.6571 H   0  0  0  0  0  0  0  0  0  0  0  0
   -0.0248    2.5530   -1.0175 H   0  0  0  0  0  0  0  0  0  0  0  0
   -0.0662    3.2774   -2.6330 H   0  0  0  0  0  0  0  0  0  0  0  0
   -0.2975    2.0019   -4.4442 H   0  0  0  0  0  0  0  0  0  0  0  0
    0.7946    0.5832   -4.5846 H   0  0  0  0  0  0  0  0  0  0  0  0
   -0.9083    0.3650   -4.0135 H   0  0  0  0  0  0  0  0  0  0  0  0
    1.2202    1.0089    0.0276 H   0  0  0  0  0  0  0  0  0  0  0  0
    2.0835   -1.8608   -0.4542 H   0  0  0  0  0  0  0  0  0  0  0  0
    2.8147    0.0829    1.8105 H   0  0  0  0  0  0  0  0  0  0  0  0
    3.7841   -0.1925    0.3283 H   0  0  0  0  0  0  0  0  0  0  0  0
    3.9364   -2.6718    0.9029 H   0  0  0  0  0  0  0  0  0  0  0  0
    3.0239   -2.3698    2.3983 H   0  0  0  0  0  0  0  0  0  0  0  0
    5.9081   -0.5762    0.7695 H   0  0  0  0  0  0  0  0  0  0  0  0
    6.4180   -2.2848    0.9945 H   0  0  0  0  0  0  0  0  0  0  0  0
    8.2876   -1.3137    1.9288 H   0  0  0  0  0  0  0  0  0  0  0  0
    7.4690    0.2371    2.2746 H   0  0  0  0  0  0  0  0  0  0  0  0
    5.9583   -1.0650    5.2935 H   0  0  0  0  0  0  0  0  0  0  0  0
    6.4561    0.4725    4.5314 H   0  0  0  0  0  0  0  0  0  0  0  0
    3.9988   -0.8394    4.1248 H   0  0  0  0  0  0  0  0  0  0  0  0
    4.7168    0.3982    3.0250 H   0  0  0  0  0  0  0  0  0  0  0  0
    0.1265   -3.1476   -0.1176 H   0  0  0  0  0  0  0  0  0  0  0  0
   -1.9796   -3.6511    0.6556 H   0  0  0  0  0  0  0  0  0  0  0  0
   -3.4072   -1.8452    1.5754 H   0  0  0  0  0  0  0  0  0  0  0  0
   -1.9894   -0.7729    1.7640 H   0  0  0  0  0  0  0  0  0  0  0  0
   -1.6154   -1.1963   -0.8351 H   0  0  0  0  0  0  0  0  0  0  0  0
   -3.2809   -1.8287   -0.8361 H   0  0  0  0  0  0  0  0  0  0  0  0
   -2.3817    0.9506    0.1714 H   0  0  0  0  0  0  0  0  0  0  0  0
   -4.5790    0.1463    1.1763 H   0  0  0  0  0  0  0  0  0  0  0  0
   -4.7026    1.6261    0.2232 H   0  0  0  0  0  0  0  0  0  0  0  0
   -5.5854   -1.9863    0.3235 H   0  0  0  0  0  0  0  0  0  0  0  0
   -7.3171   -3.0009   -1.1114 H   0  0  0  0  0  0  0  0  0  0  0  0
   -8.3192   -1.7008   -2.9690 H   0  0  0  0  0  0  0  0  0  0  0  0
   -7.5866    0.6309   -3.3880 H   0  0  0  0  0  0  0  0  0  0  0  0
   -5.8612    1.6644   -1.9630 H   0  0  0  0  0  0  0  0  0  0  0  0
   -2.9691    0.0458   -2.5841 H   0  0  0  0  0  0  0  0  0  0  0  0
   -3.1535    3.8219   -5.1223 H   0  0  0  0  0  0  0  0  0  0  0  0
   -2.7181    4.5241   -3.5260 H   0  0  0  0  0  0  0  0  0  0  0  0
   -5.7679    2.8019   -5.2801 H   0  0  0  0  0  0  0  0  0  0  0  0
   -7.8870    5.2022   -2.5056 H   0  0  0  0  0  0  0  0  0  0  0  0
   -2.4450   -3.6670    3.0467 H   0  0  0  0  0  0  0  0  0  0  0  0
   -1.1198   -2.5332    3.3996 H   0  0  0  0  0  0  0  0  0  0  0  0
   -1.8772   -5.9568    2.0024 H   0  0  0  0  0  0  0  0  0  0  0  0
   -0.3084   -7.8595    2.1544 H   0  0  0  0  0  0  0  0  0  0  0  0
    1.9729   -7.5256    3.0655 H   0  0  0  0  0  0  0  0  0  0  0  0
    2.6863   -5.2781    3.8321 H   0  0  0  0  0  0  0  0  0  0  0  0
    1.1300   -3.3685    3.6980 H   0  0  0  0  0  0  0  0  0  0  0  0
    2.4733    3.0042   -4.0241 H   0  0  0  0  0  0  0  0  0  0  0  0
  1  2  1  0
  2  3  1  0
  2  4  1  0
  4  5  2  0
  5  6  1  0
  6  7  1  0
  7  8  1  0
  8  9  1  0
  8 10  1  0
 10 11  2  0
 10 12  1  0
 12 13  1  0
 13 14  1  0
 14 15  1  0
 15 16  1  0
 16 17  1  0
 17 18  1  0
 18 19  1  0
 19 20  1  0
 20 21  1  0
 13 22  1  0
 22 23  2  0
 22 24  1  0
 24 25  1  0
 25 26  1  0
 26 27  1  0
 27 28  1  0
 28 29  1  0
 29 30  1  0
 30 31  2  0
 31 32  1  0
 32 33  2  0
 33 34  1  0
 34 35  2  0
 28 36  1  0
 36 37  1  0
 37 38  2  0
 37 39  1  0
 39 40  1  0
 40 41  1  0
 41 42  2  0
 42 43  1  0
 43 44  2  0
 44 45  1  0
 25 46  1  0
 46 47  1  0
 47 48  2  0
 48 49  1  0
 49 50  2  0
 50 51  1  0
 51 52  2  0
  6 53  2  0
 53 54  1  0
 54  4  1  0
 21 16  1  0
 35 30  1  0
 45 41  1  0
 52 47  1  0
  1 55  1  0
  1 56  1  0
  1 57  1  0
  2 58  1  0
  3 59  1  0
  3 60  1  0
  3 61  1  0
  7 62  1  0
  7 63  1  0
  9 64  1  0
  9 65  1  0
  9 66  1  0
 12 67  1  0
 13 68  1  6
 14 69  1  0
 14 70  1  0
 15 71  1  0
 15 72  1  0
 17 73  1  0
 17 74  1  0
 18 75  1  0
 18 76  1  0
 20 77  1  0
 20 78  1  0
 21 79  1  0
 21 80  1  0
 24 81  1  0
 25 82  1  6
 26 83  1  0
 26 84  1  0
 27 85  1  0
 27 86  1  0
 28 87  1  1
 29 88  1  0
 29 89  1  0
 31 90  1  0
 32 91  1  0
 33 92  1  0
 34 93  1  0
 35 94  1  0
 36 95  1  0
 40 96  1  0
 40 97  1  0
 42 98  1  0
 44 99  1  0
 46100  1  0
 46101  1  0
 48102  1  0
 49103  1  0
 50104  1  0
 51105  1  0
 52106  1  0
 53107  1  0
M  END
$$$$
