
     RDKit          3D

 24 23  0  0  0  0  0  0  0  0999 V2000
   -2.5591    1.3420    0.4510 C   0  0  0  0  0  0  0  0  0  0  0  0
   -1.6125    0.3082   -0.1747 C   0  0  0  0  0  0  0  0  0  0  0  0
   -2.2039   -1.1000   -0.0123 C   0  0  0  0  0  0  0  0  0  0  0  0
   -0.2041    0.4345    0.4562 C   0  0  0  0  0  0  0  0  0  0  0  0
    0.8778   -0.3980   -0.2652 C   0  0  2  0  0  0  0  0  0  0  0  0
    0.7849   -1.8084    0.1150 N   0  0  0  0  0  0  0  0  0  0  0  0
    2.5475    0.2482    0.1241 P   0  0  0  0  0  5  0  0  0  0  0  0
    3.7131   -0.6982   -0.6567 O   0  0  0  0  0  0  0  0  0  0  0  0
    2.6777    1.8489   -0.4095 O   0  0  0  0  0  0  0  0  0  0  0  0
    2.7795    0.1996    1.6175 O   0  0  0  0  0  0  0  0  0  0  0  0
   -3.5609    1.2871   -0.0263 H   0  0  0  0  0  0  0  0  0  0  0  0
   -2.6704    1.1606    1.5419 H   0  0  0  0  0  0  0  0  0  0  0  0
   -2.1655    2.3693    0.2961 H   0  0  0  0  0  0  0  0  0  0  0  0
   -1.5423    0.5350   -1.2617 H   0  0  0  0  0  0  0  0  0  0  0  0
   -2.1618   -1.4250    1.0494 H   0  0  0  0  0  0  0  0  0  0  0  0
   -3.2631   -1.1163   -0.3476 H   0  0  0  0  0  0  0  0  0  0  0  0
   -1.6550   -1.8279   -0.6436 H   0  0  0  0  0  0  0  0  0  0  0  0
    0.0897    1.5063    0.4052 H   0  0  0  0  0  0  0  0  0  0  0  0
   -0.2403    0.1608    1.5340 H   0  0  0  0  0  0  0  0  0  0  0  0
    0.7361   -0.3090   -1.3645 H   0  0  0  0  0  0  0  0  0  0  0  0
    1.4751   -2.3543   -0.4500 H   0  0  0  0  0  0  0  0  0  0  0  0
    1.0465   -1.9164    1.1221 H   0  0  0  0  0  0  0  0  0  0  0  0
    4.5739   -0.2472   -0.4656 H   0  0  0  0  0  0  0  0  0  0  0  0
    2.5370    1.8002   -1.3886 H   0  0  0  0  0  0  0  0  0  0  0  0
  1  2  1  0
  2  3  1  0
  2  4  1  0
  4  5  1  0
  5  6  1  0
  5  7  1  0
  7  8  1  0
  7  9  1  0
  7 10  2  0
  1 11  1  0
  1 12  1  0
  1 13  1  0
  2 14  1  0
  3 15  1  0
  3 16  1  0
  3 17  1  0
  4 18  1  0
  4 19  1  0
  5 20  1  6
  6 21  1  0
  6 22  1  0
  8 23  1  0
  9 24  1  0
M  END
$$$$
