
     RDKit          3D

 45 46  0  0  0  0  0  0  0  0999 V2000
    0.2642   -1.2644    2.0490 C   0  0  1  0  0  0  0  0  0  0  0  0
   -0.0206   -2.1938    3.0620 O   0  0  0  0  0  0  0  0  0  0  0  0
    1.6938   -1.3404    1.7145 N   0  0  0  0  0  0  0  0  0  0  0  0
    2.5152   -0.1915    1.4406 C   0  0  0  0  0  0  0  0  0  0  0  0
    3.4998   -0.2757    0.4453 C   0  0  0  0  0  0  0  0  0  0  0  0
    4.3250    0.8255    0.1421 C   0  0  0  0  0  0  0  0  0  0  0  0
    4.1558    2.0247    0.8741 C   0  0  0  0  0  0  0  0  0  0  0  0
    3.1885    2.0980    1.8834 C   0  0  0  0  0  0  0  0  0  0  0  0
    2.3779    0.9995    2.1697 C   0  0  0  0  0  0  0  0  0  0  0  0
    4.9678    3.1902    0.6148 C   0  0  0  0  0  0  0  0  0  0  0  0
    5.6183    4.1247    0.4073 N   0  0  0  0  0  0  0  0  0  0  0  0
    5.3715    0.7215   -0.9499 C   0  0  0  0  0  0  0  0  0  0  0  0
    5.1146    1.6640   -1.9292 F   0  0  0  0  0  0  0  0  0  0  0  0
    5.3777   -0.5298   -1.5424 F   0  0  0  0  0  0  0  0  0  0  0  0
    6.6254    0.9541   -0.4143 F   0  0  0  0  0  0  0  0  0  0  0  0
   -0.6325   -1.5368    0.8026 C   0  0  1  0  0  0  0  0  0  0  0  0
   -0.4032   -2.9574    0.2342 C   0  0  0  0  0  0  0  0  0  0  0  0
   -1.9839   -1.3973    1.1760 O   0  0  0  0  0  0  0  0  0  0  0  0
   -0.3283   -0.4925   -0.3013 C   0  0  0  0  0  0  0  0  0  0  0  0
   -1.2186   -0.6254   -1.4127 O   0  0  0  0  0  0  0  0  0  0  0  0
   -2.5031   -0.0654   -1.5187 C   0  0  0  0  0  0  0  0  0  0  0  0
   -3.2738   -0.4012   -2.6368 C   0  0  0  0  0  0  0  0  0  0  0  0
   -4.5580    0.1244   -2.8027 C   0  0  0  0  0  0  0  0  0  0  0  0
   -5.0974    1.0038   -1.8475 C   0  0  0  0  0  0  0  0  0  0  0  0
   -4.3227    1.3447   -0.7260 C   0  0  0  0  0  0  0  0  0  0  0  0
   -3.0378    0.8185   -0.5615 C   0  0  0  0  0  0  0  0  0  0  0  0
   -6.4197    1.5479   -2.0126 N   0  0  0  0  0  4  0  0  0  0  0  0
   -6.9439    2.4085   -1.0753 O   0  0  0  0  0  1  0  0  0  0  0  0
   -7.1122    1.2482   -3.0074 O   0  0  0  0  0  0  0  0  0  0  0  0
    0.0008   -0.2514    2.4237 H   0  0  0  0  0  0  0  0  0  0  0  0
    0.4452   -1.8736    3.8782 H   0  0  0  0  0  0  0  0  0  0  0  0
    2.0817   -2.2820    1.4792 H   0  0  0  0  0  0  0  0  0  0  0  0
    3.6028   -1.2047   -0.1008 H   0  0  0  0  0  0  0  0  0  0  0  0
    3.0650    3.0084    2.4583 H   0  0  0  0  0  0  0  0  0  0  0  0
    1.6679    1.0801    2.9807 H   0  0  0  0  0  0  0  0  0  0  0  0
   -0.5364   -3.7269    1.0238 H   0  0  0  0  0  0  0  0  0  0  0  0
   -1.1365   -3.1689   -0.5733 H   0  0  0  0  0  0  0  0  0  0  0  0
    0.6169   -3.0619   -0.1919 H   0  0  0  0  0  0  0  0  0  0  0  0
   -2.2120   -2.1270    1.8096 H   0  0  0  0  0  0  0  0  0  0  0  0
    0.7011   -0.6542   -0.6847 H   0  0  0  0  0  0  0  0  0  0  0  0
   -0.3455    0.5434    0.0976 H   0  0  0  0  0  0  0  0  0  0  0  0
   -2.8745   -1.0772   -3.3825 H   0  0  0  0  0  0  0  0  0  0  0  0
   -5.1285   -0.1574   -3.6784 H   0  0  0  0  0  0  0  0  0  0  0  0
   -4.7098    2.0197    0.0265 H   0  0  0  0  0  0  0  0  0  0  0  0
   -2.4781    1.1069    0.3159 H   0  0  0  0  0  0  0  0  0  0  0  0
  1  2  1  0
  1  3  1  0
  3  4  1  0
  4  5  2  0
  5  6  1  0
  6  7  2  0
  7  8  1  0
  8  9  2  0
  7 10  1  0
 10 11  3  0
  6 12  1  0
 12 13  1  0
 12 14  1  0
 12 15  1  0
  1 16  1  0
 16 17  1  0
 16 18  1  1
 16 19  1  0
 19 20  1  0
 20 21  1  0
 21 22  2  0
 22 23  1  0
 23 24  2  0
 24 25  1  0
 25 26  2  0
 24 27  1  0
 27 28  1  0
 27 29  2  0
  9  4  1  0
 26 21  1  0
  1 30  1  1
  2 31  1  0
  3 32  1  0
  5 33  1  0
  8 34  1  0
  9 35  1  0
 17 36  1  0
 17 37  1  0
 17 38  1  0
 18 39  1  0
 19 40  1  0
 19 41  1  0
 22 42  1  0
 23 43  1  0
 25 44  1  0
 26 45  1  0
M  CHG  2  27   1  28  -1
M  END
$$$$
