
     RDKit          3D

 18 18  0  0  0  0  0  0  0  0999 V2000
   -0.6094   -0.9095    0.3751 C   0  0  1  0  0  0  0  0  0  0  0  0
   -1.3612   -2.0457   -0.1602 N   0  0  0  0  0  0  0  0  0  0  0  0
    0.4326   -0.4372   -0.6544 C   0  0  0  0  0  0  0  0  0  0  0  0
    1.3435    0.6508   -0.0727 C   0  0  1  0  0  0  0  0  0  0  0  0
    2.0568    1.4958   -1.0557 C   0  0  0  0  0  0  0  0  0  0  0  0
    0.8977    1.9477   -0.3915 O   0  0  0  0  0  0  0  0  0  0  0  0
   -1.5572    0.2062    0.7219 C   0  0  0  0  0  0  0  0  0  0  0  0
   -1.4784    0.8177    1.9692 O   0  0  0  0  0  0  0  0  0  0  0  0
   -2.4050    0.6061   -0.1213 O   0  0  0  0  0  0  0  0  0  0  0  0
   -0.0801   -1.2335    1.3007 H   0  0  0  0  0  0  0  0  0  0  0  0
   -0.6960   -2.8381   -0.3158 H   0  0  0  0  0  0  0  0  0  0  0  0
   -2.0294   -2.3740    0.5753 H   0  0  0  0  0  0  0  0  0  0  0  0
    1.0771   -1.2964   -0.9393 H   0  0  0  0  0  0  0  0  0  0  0  0
   -0.0833   -0.0843   -1.5763 H   0  0  0  0  0  0  0  0  0  0  0  0
    1.7729    0.5776    0.9489 H   0  0  0  0  0  0  0  0  0  0  0  0
    1.8588    1.3176   -2.1339 H   0  0  0  0  0  0  0  0  0  0  0  0
    2.9613    2.0208   -0.6847 H   0  0  0  0  0  0  0  0  0  0  0  0
   -2.1006    1.5784    2.2149 H   0  0  0  0  0  0  0  0  0  0  0  0
  1  2  1  0
  1  3  1  0
  3  4  1  0
  4  5  1  0
  5  6  1  0
  1  7  1  0
  7  8  1  0
  7  9  2  0
  6  4  1  0
  1 10  1  1
  2 11  1  0
  2 12  1  0
  3 13  1  0
  3 14  1  0
  4 15  1  1
  5 16  1  0
  5 17  1  0
  8 18  1  0
M  END
$$$$
