
     RDKit          3D

 27 28  0  0  0  0  0  0  0  0999 V2000
   -3.7285   -2.0653    0.6916 N   0  0  0  0  0  0  0  0  0  0  0  0
   -3.1393   -1.0205   -0.0818 C   0  0  0  0  0  0  0  0  0  0  0  0
   -3.8125   -0.5171   -1.1679 N   0  0  0  0  0  0  0  0  0  0  0  0
   -3.2815    0.4797   -1.9351 C   0  0  0  0  0  0  0  0  0  0  0  0
   -3.9078    0.9265   -2.9315 O   0  0  0  0  0  0  0  0  0  0  0  0
   -2.0357    0.9763   -1.5819 C   0  0  0  0  0  0  0  0  0  0  0  0
   -1.3890    0.4720   -0.5064 C   0  0  0  0  0  0  0  0  0  0  0  0
   -1.9070   -0.5240    0.2563 N   0  0  0  0  0  0  0  0  0  0  0  0
   -0.2093    1.0910   -0.3670 N   0  0  0  0  0  0  0  0  0  0  0  0
    0.8451    0.8234    0.6049 C   0  0  0  0  0  0  0  0  0  0  0  0
    1.4972   -0.3794    0.2584 O   0  0  0  0  0  0  0  0  0  0  0  0
    2.5701   -0.6430    1.1448 C   0  0  0  0  0  0  0  0  0  0  0  0
    3.8955   -0.5425    0.3974 C   0  0  0  0  0  0  0  0  0  0  0  0
    4.1018    0.7742   -0.0322 O   0  0  0  0  0  0  0  0  0  0  0  0
   -0.1739    1.9648   -1.4056 C   0  0  0  0  0  0  0  0  0  0  0  0
   -1.2936    1.9275   -2.1803 N   0  0  0  0  0  0  0  0  0  0  0  0
   -4.6665   -2.4457    0.4355 H   0  0  0  0  0  0  0  0  0  0  0  0
   -3.2308   -2.4607    1.5199 H   0  0  0  0  0  0  0  0  0  0  0  0
   -1.3823   -0.9022    1.0763 H   0  0  0  0  0  0  0  0  0  0  0  0
    0.3884    0.7416    1.6171 H   0  0  0  0  0  0  0  0  0  0  0  0
    1.5635    1.6753    0.6070 H   0  0  0  0  0  0  0  0  0  0  0  0
    2.4591   -1.6834    1.5173 H   0  0  0  0  0  0  0  0  0  0  0  0
    2.6038    0.0149    2.0471 H   0  0  0  0  0  0  0  0  0  0  0  0
    4.7208   -0.8481    1.0785 H   0  0  0  0  0  0  0  0  0  0  0  0
    3.8795   -1.2296   -0.4782 H   0  0  0  0  0  0  0  0  0  0  0  0
    4.9699    0.7735   -0.5130 H   0  0  0  0  0  0  0  0  0  0  0  0
    0.6630    2.6208   -1.6080 H   0  0  0  0  0  0  0  0  0  0  0  0
  1  2  1  0
  2  3  2  0
  3  4  1  0
  4  5  2  0
  4  6  1  0
  6  7  2  0
  7  8  1  0
  7  9  1  0
  9 10  1  0
 10 11  1  0
 11 12  1  0
 12 13  1  0
 13 14  1  0
  9 15  1  0
 15 16  2  0
  8  2  1  0
 16  6  1  0
  1 17  1  0
  1 18  1  0
  8 19  1  0
 10 20  1  0
 10 21  1  0
 12 22  1  0
 12 23  1  0
 13 24  1  0
 13 25  1  0
 14 26  1  0
 15 27  1  0
M  END
$$$$
