
     RDKit          3D

 33 35  0  0  0  0  0  0  0  0999 V2000
   -6.0069    1.8445    0.1047 O   0  0  0  0  0  0  0  0  0  0  0  0
   -4.6445    1.7262    0.2501 N   0  0  0  0  0  0  0  0  0  0  0  0
   -4.0193    0.6900   -0.2108 C   0  0  0  0  0  0  0  0  0  0  0  0
   -2.5442    0.5648   -0.0724 C   0  0  0  0  0  0  0  0  0  0  0  0
   -1.8702   -0.6865   -0.1557 C   0  0  0  0  0  0  0  0  0  0  0  0
   -2.5754   -1.9076   -0.2689 C   0  0  0  0  0  0  0  0  0  0  0  0
   -1.8965   -3.1237   -0.3354 C   0  0  0  0  0  0  0  0  0  0  0  0
   -0.5081   -3.1564   -0.2735 C   0  0  0  0  0  0  0  0  0  0  0  0
    0.2149   -1.9731   -0.1426 C   0  0  0  0  0  0  0  0  0  0  0  0
   -0.4436   -0.7248   -0.0895 C   0  0  0  0  0  0  0  0  0  0  0  0
    0.2860    0.4816    0.0620 C   0  0  0  0  0  0  0  0  0  0  0  0
   -0.4021    1.6916    0.1869 C   0  0  0  0  0  0  0  0  0  0  0  0
   -1.7898    1.7340    0.1196 C   0  0  0  0  0  0  0  0  0  0  0  0
    1.7665    0.5224    0.0826 C   0  0  0  0  0  0  0  0  0  0  0  0
    2.5025    0.1550   -1.0557 C   0  0  0  0  0  0  0  0  0  0  0  0
    3.8993    0.2141   -1.0402 C   0  0  0  0  0  0  0  0  0  0  0  0
    4.5725    0.6504    0.1092 C   0  0  0  0  0  0  0  0  0  0  0  0
    5.9638    0.7131    0.1366 O   0  0  0  0  0  0  0  0  0  0  0  0
    3.8416    1.0290    1.2402 C   0  0  0  0  0  0  0  0  0  0  0  0
    2.4446    0.9704    1.2273 C   0  0  0  0  0  0  0  0  0  0  0  0
   -6.4857    2.6585    0.4685 H   0  0  0  0  0  0  0  0  0  0  0  0
   -4.5916   -0.0704   -0.7230 H   0  0  0  0  0  0  0  0  0  0  0  0
   -3.6531   -1.9509   -0.2821 H   0  0  0  0  0  0  0  0  0  0  0  0
   -2.4527   -4.0485   -0.4213 H   0  0  0  0  0  0  0  0  0  0  0  0
    0.0111   -4.1054   -0.3130 H   0  0  0  0  0  0  0  0  0  0  0  0
    1.2909   -2.0499   -0.0658 H   0  0  0  0  0  0  0  0  0  0  0  0
    0.1441    2.6195    0.3107 H   0  0  0  0  0  0  0  0  0  0  0  0
   -2.2742    2.7002    0.1894 H   0  0  0  0  0  0  0  0  0  0  0  0
    1.9937   -0.1759   -1.9528 H   0  0  0  0  0  0  0  0  0  0  0  0
    4.4566   -0.0762   -1.9217 H   0  0  0  0  0  0  0  0  0  0  0  0
    6.5217    0.4464   -0.6662 H   0  0  0  0  0  0  0  0  0  0  0  0
    4.3566    1.3700    2.1293 H   0  0  0  0  0  0  0  0  0  0  0  0
    1.8915    1.2675    2.1099 H   0  0  0  0  0  0  0  0  0  0  0  0
  1  2  1  0
  2  3  2  0
  3  4  1  0
  4  5  2  0
  5  6  1  0
  6  7  2  0
  7  8  1  0
  8  9  2  0
  9 10  1  0
 10 11  2  0
 11 12  1  0
 12 13  2  0
 11 14  1  0
 14 15  2  0
 15 16  1  0
 16 17  2  0
 17 18  1  0
 17 19  1  0
 19 20  2  0
 13  4  1  0
 20 14  1  0
 10  5  1  0
  1 21  1  0
  3 22  1  0
  6 23  1  0
  7 24  1  0
  8 25  1  0
  9 26  1  0
 12 27  1  0
 13 28  1  0
 15 29  1  0
 16 30  1  0
 18 31  1  0
 19 32  1  0
 20 33  1  0
M  END
$$$$
