
     RDKit          3D

 62 65  0  0  0  0  0  0  0  0999 V2000
   -0.0782    0.7297    0.7435 C   0  0  2  0  0  0  0  0  0  0  0  0
    0.7540    1.9163    1.2087 C   0  0  0  0  0  0  0  0  0  0  0  0
    2.2074    1.3916    1.1751 C   0  0  2  0  0  0  0  0  0  0  0  0
    3.1884    2.4948    0.7403 C   0  0  0  0  0  0  0  0  0  0  0  0
    2.1919    0.0554    0.3337 C   0  0  2  0  0  0  0  0  0  0  0  0
    2.2323   -0.9931    1.2848 O   0  0  0  0  0  0  0  0  0  0  0  0
    3.4027   -0.0825   -0.6240 C   0  0  0  0  0  0  0  0  0  0  0  0
    3.5690    0.7198   -1.5313 O   0  0  0  0  0  0  0  0  0  0  0  0
    4.4211   -1.1871   -0.4631 C   0  0  0  0  0  0  0  0  0  0  0  0
    5.5674   -0.9059   -1.2340 O   0  0  0  0  0  0  0  0  0  0  0  0
    6.6707   -2.1943   -1.0509 P   0  0  0  0  0  5  0  0  0  0  0  0
    8.0931   -1.8234   -1.8880 O   0  0  0  0  0  0  0  0  0  0  0  0
    7.0364   -2.4313    0.5853 O   0  0  0  0  0  0  0  0  0  0  0  0
    6.0823   -3.4643   -1.6236 O   0  0  0  0  0  0  0  0  0  0  0  0
    0.7686    0.0773   -0.3616 C   0  0  2  0  0  0  0  0  0  0  0  0
    0.8022    0.9334   -1.6728 C   0  0  0  0  0  0  0  0  0  0  0  0
    0.1346   -1.3112   -0.6698 C   0  0  0  0  0  0  0  0  0  0  0  0
   -1.3706   -1.2250   -1.0577 C   0  0  2  0  0  0  0  0  0  0  0  0
   -1.5122   -0.7085   -2.3534 O   0  0  0  0  0  0  0  0  0  0  0  0
   -2.2220   -0.4175   -0.0083 C   0  0  1  0  0  0  0  0  0  0  0  0
   -2.1930   -1.1837    1.1541 F   0  0  0  0  0  0  0  0  0  0  0  0
   -1.5566    0.9676    0.3428 C   0  0  1  0  0  0  0  0  0  0  0  0
   -2.3197    1.6655    1.4914 C   0  0  0  0  0  0  0  0  0  0  0  0
   -3.7947    1.8643    1.1476 C   0  0  0  0  0  0  0  0  0  0  0  0
   -4.4144    0.5454    0.7601 C   0  0  0  0  0  0  0  0  0  0  0  0
   -5.5184    0.1228    1.3972 C   0  0  0  0  0  0  0  0  0  0  0  0
   -6.1146   -1.1753    1.0859 C   0  0  0  0  0  0  0  0  0  0  0  0
   -7.1610   -1.5506    1.6770 O   0  0  0  0  0  0  0  0  0  0  0  0
   -5.4790   -2.0412    0.0968 C   0  0  0  0  0  0  0  0  0  0  0  0
   -4.3869   -1.6394   -0.5541 C   0  0  0  0  0  0  0  0  0  0  0  0
   -3.7557   -0.2561   -0.3765 C   0  0  2  0  0  0  0  0  0  0  0  0
   -4.0155    0.5156   -1.6952 C   0  0  0  0  0  0  0  0  0  0  0  0
   -0.1064    0.0356    1.6185 H   0  0  0  0  0  0  0  0  0  0  0  0
    0.4710    2.2267    2.2384 H   0  0  0  0  0  0  0  0  0  0  0  0
    0.6045    2.7791    0.5228 H   0  0  0  0  0  0  0  0  0  0  0  0
    2.4922    1.1439    2.2241 H   0  0  0  0  0  0  0  0  0  0  0  0
    3.1177    3.3522    1.4433 H   0  0  0  0  0  0  0  0  0  0  0  0
    4.2323    2.1177    0.7750 H   0  0  0  0  0  0  0  0  0  0  0  0
    2.9644    2.8711   -0.2774 H   0  0  0  0  0  0  0  0  0  0  0  0
    2.2753   -1.8631    0.8121 H   0  0  0  0  0  0  0  0  0  0  0  0
    4.6940   -1.2534    0.6138 H   0  0  0  0  0  0  0  0  0  0  0  0
    3.9473   -2.1364   -0.8000 H   0  0  0  0  0  0  0  0  0  0  0  0
    8.3897   -0.9577   -1.5093 H   0  0  0  0  0  0  0  0  0  0  0  0
    7.3862   -1.5578    0.8943 H   0  0  0  0  0  0  0  0  0  0  0  0
    1.3419    1.8884   -1.5348 H   0  0  0  0  0  0  0  0  0  0  0  0
    1.2943    0.3648   -2.4899 H   0  0  0  0  0  0  0  0  0  0  0  0
   -0.1903    1.2183   -2.0556 H   0  0  0  0  0  0  0  0  0  0  0  0
    0.7088   -1.8199   -1.4745 H   0  0  0  0  0  0  0  0  0  0  0  0
    0.1820   -1.9685    0.2233 H   0  0  0  0  0  0  0  0  0  0  0  0
   -1.7446   -2.2744   -1.0573 H   0  0  0  0  0  0  0  0  0  0  0  0
   -1.2057   -1.4119   -2.9836 H   0  0  0  0  0  0  0  0  0  0  0  0
   -1.5979    1.6546   -0.5214 H   0  0  0  0  0  0  0  0  0  0  0  0
   -2.2382    1.0704    2.4281 H   0  0  0  0  0  0  0  0  0  0  0  0
   -1.8757    2.6655    1.6858 H   0  0  0  0  0  0  0  0  0  0  0  0
   -4.3045    2.3183    2.0259 H   0  0  0  0  0  0  0  0  0  0  0  0
   -3.8914    2.5818    0.3053 H   0  0  0  0  0  0  0  0  0  0  0  0
   -5.9722    0.7258    2.1748 H   0  0  0  0  0  0  0  0  0  0  0  0
   -5.9015   -3.0163   -0.1128 H   0  0  0  0  0  0  0  0  0  0  0  0
   -3.9865   -2.3047   -1.3081 H   0  0  0  0  0  0  0  0  0  0  0  0
   -3.8162   -0.1082   -2.5905 H   0  0  0  0  0  0  0  0  0  0  0  0
   -5.0867    0.8076   -1.7593 H   0  0  0  0  0  0  0  0  0  0  0  0
   -3.4136    1.4414   -1.7718 H   0  0  0  0  0  0  0  0  0  0  0  0
  1  2  1  0
  2  3  1  0
  3  4  1  0
  3  5  1  0
  5  6  1  1
  5  7  1  0
  7  8  2  0
  7  9  1  0
  9 10  1  0
 10 11  1  0
 11 12  1  0
 11 13  1  0
 11 14  2  0
  5 15  1  0
 15 16  1  6
 15 17  1  0
 17 18  1  0
 18 19  1  0
 18 20  1  0
 20 21  1  1
 20 22  1  0
 22 23  1  0
 23 24  1  0
 24 25  1  0
 25 26  2  0
 26 27  1  0
 27 28  2  0
 27 29  1  0
 29 30  2  0
 30 31  1  0
 31 32  1  6
 15  1  1  0
 31 20  1  0
 22  1  1  0
 31 25  1  0
  1 33  1  1
  2 34  1  0
  2 35  1  0
  3 36  1  1
  4 37  1  0
  4 38  1  0
  4 39  1  0
  6 40  1  0
  9 41  1  0
  9 42  1  0
 12 43  1  0
 13 44  1  0
 16 45  1  0
 16 46  1  0
 16 47  1  0
 17 48  1  0
 17 49  1  0
 18 50  1  6
 19 51  1  0
 22 52  1  6
 23 53  1  0
 23 54  1  0
 24 55  1  0
 24 56  1  0
 26 57  1  0
 29 58  1  0
 30 59  1  0
 32 60  1  0
 32 61  1  0
 32 62  1  0
M  END
$$$$
