
     RDKit          3D

 69 73  0  0  0  0  0  0  0  0999 V2000
   -1.3363   -3.4205    2.2265 C   0  0  2  0  0  0  0  0  0  0  0  0
   -2.5300   -3.1381    1.2920 C   0  0  0  0  0  0  0  0  0  0  0  0
   -2.7661   -1.6391    1.0827 C   0  0  2  0  0  0  0  0  0  0  0  0
   -3.9951   -1.4277    0.1743 C   0  0  0  0  0  0  0  0  0  0  0  0
   -4.2462    0.0667   -0.0858 C   0  0  1  0  0  0  0  0  0  0  0  0
   -2.9987    0.7041   -0.7160 C   0  0  0  0  0  0  0  0  0  0  0  0
   -1.7727    0.5110    0.1822 C   0  0  0  0  0  0  0  0  0  0  0  0
   -1.5031   -0.9880    0.4673 C   0  0  1  0  0  0  0  0  0  0  0  0
   -0.3044   -1.1618    1.4361 C   0  0  2  0  0  0  0  0  0  0  0  0
    0.9539   -0.5344    0.8857 C   0  0  0  0  0  0  0  0  0  0  0  0
    1.9090   -0.0631    1.6962 C   0  0  0  0  0  0  0  0  0  0  0  0
    3.1646    0.5221    1.1849 C   0  0  0  0  0  0  0  0  0  0  0  0
    4.1343    0.9862    2.0817 C   0  0  0  0  0  0  0  0  0  0  0  0
    5.3204    1.5339    1.5908 C   0  0  0  0  0  0  0  0  0  0  0  0
    5.5412    1.6210    0.2064 C   0  0  0  0  0  0  0  0  0  0  0  0
    4.5410    1.1436   -0.6573 C   0  0  0  0  0  0  0  0  0  0  0  0
    3.3955    0.6123   -0.1543 N   0  0  0  0  0  0  0  0  0  0  0  0
    6.7985    2.2021   -0.3302 C   0  0  0  0  0  0  0  0  0  0  0  0
    8.0338    1.9313    0.2890 C   0  0  0  0  0  0  0  0  0  0  0  0
    9.2164    2.4794   -0.2185 C   0  0  0  0  0  0  0  0  0  0  0  0
   10.4011    2.2080    0.3825 F   0  0  0  0  0  0  0  0  0  0  0  0
    9.1792    3.3026   -1.3465 C   0  0  0  0  0  0  0  0  0  0  0  0
    7.9602    3.5789   -1.9693 C   0  0  0  0  0  0  0  0  0  0  0  0
    6.7753    3.0329   -1.4667 C   0  0  0  0  0  0  0  0  0  0  0  0
   -0.0527   -2.6417    1.8512 C   0  0  2  0  0  0  0  0  0  0  0  0
    0.6720   -3.5692    0.8294 C   0  0  1  0  0  0  0  0  0  0  0  0
    2.1999   -3.5376    0.9252 C   0  0  0  0  0  0  0  0  0  0  0  0
    0.2156   -4.8722    1.1619 O   0  0  0  0  0  0  0  0  0  0  0  0
   -0.8871   -4.8121    1.9873 C   0  0  0  0  0  0  0  0  0  0  0  0
   -1.4646   -5.8361    2.4377 O   0  0  0  0  0  0  0  0  0  0  0  0
   -5.4016    0.2412   -0.9723 N   0  0  0  0  0  0  0  0  0  0  0  0
   -6.0902    1.4904   -1.1016 C   0  0  0  0  0  0  0  0  0  0  0  0
   -5.7286    2.4916   -0.4236 O   0  0  0  0  0  0  0  0  0  0  0  0
   -7.1707    1.5859   -1.9827 O   0  0  0  0  0  0  0  0  0  0  0  0
   -7.9066    2.7908   -2.1676 C   0  0  0  0  0  0  0  0  0  0  0  0
   -9.0101    2.5626   -3.1880 C   0  0  0  0  0  0  0  0  0  0  0  0
   -1.6126   -3.2544    3.2911 H   0  0  0  0  0  0  0  0  0  0  0  0
   -2.3652   -3.6128    0.2965 H   0  0  0  0  0  0  0  0  0  0  0  0
   -3.4407   -3.5993    1.7341 H   0  0  0  0  0  0  0  0  0  0  0  0
   -2.9800   -1.1742    2.0726 H   0  0  0  0  0  0  0  0  0  0  0  0
   -4.8946   -1.8630    0.6630 H   0  0  0  0  0  0  0  0  0  0  0  0
   -3.8424   -1.9538   -0.7951 H   0  0  0  0  0  0  0  0  0  0  0  0
   -4.4617    0.5581    0.8900 H   0  0  0  0  0  0  0  0  0  0  0  0
   -3.1649    1.7927   -0.8628 H   0  0  0  0  0  0  0  0  0  0  0  0
   -2.8042    0.2511   -1.7135 H   0  0  0  0  0  0  0  0  0  0  0  0
   -0.8993    0.9680   -0.3298 H   0  0  0  0  0  0  0  0  0  0  0  0
   -1.9301    1.0586    1.1380 H   0  0  0  0  0  0  0  0  0  0  0  0
   -1.2653   -1.4899   -0.4984 H   0  0  0  0  0  0  0  0  0  0  0  0
   -0.5748   -0.6124    2.3680 H   0  0  0  0  0  0  0  0  0  0  0  0
    1.0873   -0.5017   -0.1894 H   0  0  0  0  0  0  0  0  0  0  0  0
    1.7660   -0.1221    2.7693 H   0  0  0  0  0  0  0  0  0  0  0  0
    3.9742    0.9279    3.1514 H   0  0  0  0  0  0  0  0  0  0  0  0
    6.0559    1.9053    2.2932 H   0  0  0  0  0  0  0  0  0  0  0  0
    4.6759    1.1747   -1.7304 H   0  0  0  0  0  0  0  0  0  0  0  0
    8.0868    1.2818    1.1537 H   0  0  0  0  0  0  0  0  0  0  0  0
   10.0945    3.7269   -1.7387 H   0  0  0  0  0  0  0  0  0  0  0  0
    7.9325    4.2200   -2.8409 H   0  0  0  0  0  0  0  0  0  0  0  0
    5.8401    3.2750   -1.9555 H   0  0  0  0  0  0  0  0  0  0  0  0
    0.5722   -2.6094    2.7744 H   0  0  0  0  0  0  0  0  0  0  0  0
    0.3525   -3.3298   -0.2080 H   0  0  0  0  0  0  0  0  0  0  0  0
    2.5327   -3.6985    1.9725 H   0  0  0  0  0  0  0  0  0  0  0  0
    2.6054   -2.5771    0.5531 H   0  0  0  0  0  0  0  0  0  0  0  0
    2.6252   -4.3467    0.2946 H   0  0  0  0  0  0  0  0  0  0  0  0
   -5.7699   -0.5742   -1.5130 H   0  0  0  0  0  0  0  0  0  0  0  0
   -7.2286    3.5925   -2.5331 H   0  0  0  0  0  0  0  0  0  0  0  0
   -8.3586    3.1067   -1.2023 H   0  0  0  0  0  0  0  0  0  0  0  0
   -9.5857    3.5009   -3.3341 H   0  0  0  0  0  0  0  0  0  0  0  0
   -8.5702    2.2538   -4.1599 H   0  0  0  0  0  0  0  0  0  0  0  0
   -9.6992    1.7684   -2.8303 H   0  0  0  0  0  0  0  0  0  0  0  0
  1  2  1  0
  2  3  1  0
  3  4  1  0
  4  5  1  0
  5  6  1  0
  6  7  1  0
  7  8  1  0
  8  9  1  0
  9 10  1  0
 10 11  2  0
 11 12  1  0
 12 13  2  0
 13 14  1  0
 14 15  2  0
 15 16  1  0
 16 17  2  0
 15 18  1  0
 18 19  2  0
 19 20  1  0
 20 21  1  0
 20 22  2  0
 22 23  1  0
 23 24  2  0
  9 25  1  0
 25 26  1  0
 26 27  1  0
 26 28  1  0
 28 29  1  0
 29 30  2  0
  5 31  1  0
 31 32  1  0
 32 33  2  0
 32 34  1  0
 34 35  1  0
 35 36  1  0
 25  1  1  0
 29  1  1  0
  8  3  1  0
 17 12  1  0
 24 18  1  0
  1 37  1  1
  2 38  1  0
  2 39  1  0
  3 40  1  1
  4 41  1  0
  4 42  1  0
  5 43  1  1
  6 44  1  0
  6 45  1  0
  7 46  1  0
  7 47  1  0
  8 48  1  6
  9 49  1  1
 10 50  1  0
 11 51  1  0
 13 52  1  0
 14 53  1  0
 16 54  1  0
 19 55  1  0
 22 56  1  0
 23 57  1  0
 24 58  1  0
 25 59  1  1
 26 60  1  6
 27 61  1  0
 27 62  1  0
 27 63  1  0
 31 64  1  0
 35 65  1  0
 35 66  1  0
 36 67  1  0
 36 68  1  0
 36 69  1  0
M  END
$$$$
