
     RDKit          3D

 33 34  0  0  0  0  0  0  0  0999 V2000
   -3.4926   -0.4604   -0.0204 C   0  0  2  0  0  0  0  0  0  0  0  0
   -4.3409   -0.9757   -1.1903 C   0  0  0  0  0  0  0  0  0  0  0  0
   -4.1486    0.6987    0.6810 C   0  0  0  0  0  0  0  0  0  0  0  0
   -4.0544    0.8038    2.0652 O   0  0  0  0  0  0  0  0  0  0  0  0
   -4.7436    1.5968    0.0253 O   0  0  0  0  0  0  0  0  0  0  0  0
   -2.0950   -0.0887   -0.4750 C   0  0  0  0  0  0  0  0  0  0  0  0
   -0.9824   -0.7920    0.0219 C   0  0  0  0  0  0  0  0  0  0  0  0
    0.3218   -0.4559   -0.3817 C   0  0  0  0  0  0  0  0  0  0  0  0
    0.5032    0.5784   -1.3156 C   0  0  0  0  0  0  0  0  0  0  0  0
   -0.5954    1.2799   -1.8145 C   0  0  0  0  0  0  0  0  0  0  0  0
   -1.8866    0.9530   -1.3974 C   0  0  0  0  0  0  0  0  0  0  0  0
    1.4797   -1.2212    0.1414 C   0  0  0  0  0  0  0  0  0  0  0  0
    1.3299   -2.4458    0.4053 O   0  0  0  0  0  0  0  0  0  0  0  0
    2.8071   -0.5985    0.3656 C   0  0  0  0  0  0  0  0  0  0  0  0
    2.9188    0.7462    0.7671 C   0  0  0  0  0  0  0  0  0  0  0  0
    4.1762    1.3150    0.9920 C   0  0  0  0  0  0  0  0  0  0  0  0
    5.3318    0.5475    0.8297 C   0  0  0  0  0  0  0  0  0  0  0  0
    5.2322   -0.7923    0.4476 C   0  0  0  0  0  0  0  0  0  0  0  0
    3.9771   -1.3660    0.2217 C   0  0  0  0  0  0  0  0  0  0  0  0
   -3.4337   -1.2932    0.7153 H   0  0  0  0  0  0  0  0  0  0  0  0
   -4.4780   -0.1933   -1.9667 H   0  0  0  0  0  0  0  0  0  0  0  0
   -3.8481   -1.8560   -1.6559 H   0  0  0  0  0  0  0  0  0  0  0  0
   -5.3413   -1.2908   -0.8237 H   0  0  0  0  0  0  0  0  0  0  0  0
   -4.4727    1.5846    2.5567 H   0  0  0  0  0  0  0  0  0  0  0  0
   -1.1303   -1.5952    0.7340 H   0  0  0  0  0  0  0  0  0  0  0  0
    1.4930    0.8349   -1.6717 H   0  0  0  0  0  0  0  0  0  0  0  0
   -0.4460    2.0764   -2.5321 H   0  0  0  0  0  0  0  0  0  0  0  0
   -2.7231    1.5106   -1.7981 H   0  0  0  0  0  0  0  0  0  0  0  0
    2.0353    1.3526    0.9218 H   0  0  0  0  0  0  0  0  0  0  0  0
    4.2540    2.3501    1.2985 H   0  0  0  0  0  0  0  0  0  0  0  0
    6.3041    0.9894    1.0054 H   0  0  0  0  0  0  0  0  0  0  0  0
    6.1281   -1.3875    0.3269 H   0  0  0  0  0  0  0  0  0  0  0  0
    3.9204   -2.4057   -0.0764 H   0  0  0  0  0  0  0  0  0  0  0  0
  1  2  1  0
  1  3  1  0
  3  4  1  0
  3  5  2  0
  1  6  1  0
  6  7  2  0
  7  8  1  0
  8  9  2  0
  9 10  1  0
 10 11  2  0
  8 12  1  0
 12 13  2  0
 12 14  1  0
 14 15  2  0
 15 16  1  0
 16 17  2  0
 17 18  1  0
 18 19  2  0
 11  6  1  0
 19 14  1  0
  1 20  1  1
  2 21  1  0
  2 22  1  0
  2 23  1  0
  4 24  1  0
  7 25  1  0
  9 26  1  0
 10 27  1  0
 11 28  1  0
 15 29  1  0
 16 30  1  0
 17 31  1  0
 18 32  1  0
 19 33  1  0
M  END
$$$$
