
     RDKit          3D

 21 22  0  0  0  0  0  0  0  0999 V2000
    5.0708    0.0446   -0.2830 N   0  0  0  0  0  0  0  0  0  0  0  0
    3.7846   -0.0831   -0.2841 C   0  0  0  0  0  0  0  0  0  0  0  0
    2.9541    0.7588   -1.0693 N   0  0  0  0  0  0  0  0  0  0  0  0
    1.5898    0.4667   -0.8343 C   0  0  0  0  0  0  0  0  0  0  0  0
    0.6739    1.0071   -1.5081 O   0  0  0  0  0  0  0  0  0  0  0  0
    1.3795   -0.5724    0.1837 C   0  0  0  0  0  0  0  0  0  0  0  0
    2.9334   -1.3123    0.7136 S   0  0  0  0  0  0  0  0  0  0  0  0
    0.2112   -0.9959    0.6910 C   0  0  0  0  0  0  0  0  0  0  0  0
   -1.1061   -0.3787    0.4420 C   0  0  0  0  0  0  0  0  0  0  0  0
   -2.2496   -1.1871    0.3748 C   0  0  0  0  0  0  0  0  0  0  0  0
   -3.5015   -0.5926    0.2016 C   0  0  0  0  0  0  0  0  0  0  0  0
   -3.6054    0.7967    0.1178 C   0  0  0  0  0  0  0  0  0  0  0  0
   -2.4498    1.5739    0.2163 C   0  0  0  0  0  0  0  0  0  0  0  0
   -1.2398    0.9763    0.3840 N   0  0  0  0  0  0  0  0  0  0  0  0
    5.6722   -0.5761    0.3028 H   0  0  0  0  0  0  0  0  0  0  0  0
    3.3004    1.4836   -1.7370 H   0  0  0  0  0  0  0  0  0  0  0  0
    0.2302   -1.8560    1.3499 H   0  0  0  0  0  0  0  0  0  0  0  0
   -2.1719   -2.2649    0.4496 H   0  0  0  0  0  0  0  0  0  0  0  0
   -4.3898   -1.2076    0.1377 H   0  0  0  0  0  0  0  0  0  0  0  0
   -4.5715    1.2664   -0.0140 H   0  0  0  0  0  0  0  0  0  0  0  0
   -2.5147    2.6525    0.1652 H   0  0  0  0  0  0  0  0  0  0  0  0
  1  2  2  3
  2  3  1  0
  3  4  1  0
  4  5  2  0
  4  6  1  0
  6  7  1  0
  6  8  2  0
  8  9  1  0
  9 10  2  0
 10 11  1  0
 11 12  2  0
 12 13  1  0
 13 14  2  0
  7  2  1  0
 14  9  1  0
  1 15  1  0
  3 16  1  0
  8 17  1  0
 10 18  1  0
 11 19  1  0
 12 20  1  0
 13 21  1  0
M  END
$$$$
