
     RDKit          3D

 52 54  0  0  0  0  0  0  0  0999 V2000
   -3.9590   -1.9702    2.7729 C   0  0  0  0  0  0  0  0  0  0  0  0
   -4.4295   -1.7425    1.3367 C   0  0  0  0  0  0  0  0  0  0  0  0
   -3.5623   -0.6966    0.6059 C   0  0  2  0  0  0  0  0  0  0  0  0
   -4.1732   -0.3328   -0.7590 C   0  0  0  0  0  0  0  0  0  0  0  0
   -4.2492   -1.4565   -1.5960 O   0  0  0  0  0  0  0  0  0  0  0  0
   -2.1899   -1.1873    0.4285 N   0  0  0  0  0  0  0  0  0  0  0  0
   -1.0820   -0.3088    0.1958 C   0  0  0  0  0  0  0  0  0  0  0  0
    0.1692   -0.8361   -0.0069 N   0  0  0  0  0  0  0  0  0  0  0  0
    1.2581   -0.0388   -0.2323 C   0  0  0  0  0  0  0  0  0  0  0  0
    2.5588   -0.6038   -0.4431 N   0  0  0  0  0  0  0  0  0  0  0  0
    2.7721   -2.0503   -0.4259 C   0  0  0  0  0  0  0  0  0  0  0  0
    4.2203   -2.3755   -0.6726 C   0  0  0  0  0  0  0  0  0  0  0  0
    4.6955   -2.5410   -1.9841 C   0  0  0  0  0  0  0  0  0  0  0  0
    6.0493   -2.8058   -2.2139 C   0  0  0  0  0  0  0  0  0  0  0  0
    6.9380   -2.8955   -1.1389 C   0  0  0  0  0  0  0  0  0  0  0  0
    6.4752   -2.7157    0.1677 C   0  0  0  0  0  0  0  0  0  0  0  0
    5.1222   -2.4507    0.4018 C   0  0  0  0  0  0  0  0  0  0  0  0
    1.0515    1.3364   -0.2484 C   0  0  0  0  0  0  0  0  0  0  0  0
    1.9358    2.3320   -0.4452 N   0  0  0  0  0  0  0  0  0  0  0  0
    1.1601    3.4471   -0.3491 C   0  0  0  0  0  0  0  0  0  0  0  0
   -0.1485    3.1762   -0.1039 N   0  0  0  0  0  0  0  0  0  0  0  0
   -1.2381    4.1472    0.0524 C   0  0  0  0  0  0  0  0  0  0  0  0
   -1.8575    4.0445    1.4494 C   0  0  0  0  0  0  0  0  0  0  0  0
   -2.2942    3.9547   -1.0399 C   0  0  0  0  0  0  0  0  0  0  0  0
   -0.1877    1.8369   -0.0456 C   0  0  0  0  0  0  0  0  0  0  0  0
   -1.2647    1.0476    0.1776 N   0  0  0  0  0  0  0  0  0  0  0  0
   -2.9231   -2.3695    2.7878 H   0  0  0  0  0  0  0  0  0  0  0  0
   -4.6262   -2.7060    3.2691 H   0  0  0  0  0  0  0  0  0  0  0  0
   -3.9931   -1.0191    3.3458 H   0  0  0  0  0  0  0  0  0  0  0  0
   -4.4085   -2.7099    0.7889 H   0  0  0  0  0  0  0  0  0  0  0  0
   -5.4843   -1.3918    1.3704 H   0  0  0  0  0  0  0  0  0  0  0  0
   -3.5456    0.2254    1.2296 H   0  0  0  0  0  0  0  0  0  0  0  0
   -3.5786    0.4737   -1.2450 H   0  0  0  0  0  0  0  0  0  0  0  0
   -5.1982    0.0687   -0.6095 H   0  0  0  0  0  0  0  0  0  0  0  0
   -3.3485   -1.5772   -1.9955 H   0  0  0  0  0  0  0  0  0  0  0  0
   -2.0040   -2.2161    0.4480 H   0  0  0  0  0  0  0  0  0  0  0  0
    3.3675    0.0380   -0.6123 H   0  0  0  0  0  0  0  0  0  0  0  0
    2.4554   -2.4590    0.5585 H   0  0  0  0  0  0  0  0  0  0  0  0
    2.1396   -2.5265   -1.2067 H   0  0  0  0  0  0  0  0  0  0  0  0
    4.0190   -2.4637   -2.8263 H   0  0  0  0  0  0  0  0  0  0  0  0
    6.4102   -2.9377   -3.2258 H   0  0  0  0  0  0  0  0  0  0  0  0
    7.9857   -3.0991   -1.3185 H   0  0  0  0  0  0  0  0  0  0  0  0
    7.1657   -2.7778    0.9989 H   0  0  0  0  0  0  0  0  0  0  0  0
    4.7780   -2.3031    1.4180 H   0  0  0  0  0  0  0  0  0  0  0  0
    1.5533    4.4496   -0.4585 H   0  0  0  0  0  0  0  0  0  0  0  0
   -0.8250    5.1750   -0.0571 H   0  0  0  0  0  0  0  0  0  0  0  0
   -2.3545    3.0623    1.5946 H   0  0  0  0  0  0  0  0  0  0  0  0
   -1.0678    4.1644    2.2212 H   0  0  0  0  0  0  0  0  0  0  0  0
   -2.6113    4.8480    1.5912 H   0  0  0  0  0  0  0  0  0  0  0  0
   -2.7994    2.9716   -0.9372 H   0  0  0  0  0  0  0  0  0  0  0  0
   -3.0606    4.7560   -0.9735 H   0  0  0  0  0  0  0  0  0  0  0  0
   -1.8155    4.0091   -2.0406 H   0  0  0  0  0  0  0  0  0  0  0  0
  1  2  1  0
  2  3  1  0
  3  4  1  0
  4  5  1  0
  3  6  1  0
  6  7  1  0
  7  8  2  0
  8  9  1  0
  9 10  1  0
 10 11  1  0
 11 12  1  0
 12 13  2  0
 13 14  1  0
 14 15  2  0
 15 16  1  0
 16 17  2  0
  9 18  2  0
 18 19  1  0
 19 20  2  0
 20 21  1  0
 21 22  1  0
 22 23  1  0
 22 24  1  0
 21 25  1  0
 25 26  2  0
 26  7  1  0
 17 12  1  0
 25 18  1  0
  1 27  1  0
  1 28  1  0
  1 29  1  0
  2 30  1  0
  2 31  1  0
  3 32  1  1
  4 33  1  0
  4 34  1  0
  5 35  1  0
  6 36  1  0
 10 37  1  0
 11 38  1  0
 11 39  1  0
 13 40  1  0
 14 41  1  0
 15 42  1  0
 16 43  1  0
 17 44  1  0
 20 45  1  0
 22 46  1  0
 23 47  1  0
 23 48  1  0
 23 49  1  0
 24 50  1  0
 24 51  1  0
 24 52  1  0
M  END
$$$$
