
     RDKit          3D

 44 47  0  0  0  0  0  0  0  0999 V2000
    1.2783    3.5399    0.4863 C   0  0  0  0  0  0  0  0  0  0  0  0
    0.1400    2.5589    0.3740 C   0  0  0  0  0  0  0  0  0  0  0  0
    0.3630    1.1768    0.1865 C   0  0  0  0  0  0  0  0  0  0  0  0
    1.7363    0.6246    0.1083 C   0  0  0  0  0  0  0  0  0  0  0  0
    2.1931    0.0413   -1.0848 C   0  0  0  0  0  0  0  0  0  0  0  0
    3.4906   -0.4841   -1.1563 C   0  0  0  0  0  0  0  0  0  0  0  0
    4.3357   -0.4312   -0.0304 C   0  0  0  0  0  0  0  0  0  0  0  0
    3.8770    0.1442    1.1588 C   0  0  0  0  0  0  0  0  0  0  0  0
    2.5824    0.6676    1.2290 C   0  0  0  0  0  0  0  0  0  0  0  0
    5.5925   -0.9419   -0.1053 N   0  0  0  0  0  0  0  0  0  0  0  0
    6.0516   -1.5058   -1.2545 C   0  0  0  0  0  0  0  0  0  0  0  0
    7.3741   -2.0349   -1.3095 N   0  0  0  0  0  0  0  0  0  0  0  0
    5.2493   -1.5653   -2.3513 N   0  0  0  0  0  0  0  0  0  0  0  0
    3.9849   -1.0688   -2.3263 C   0  0  0  0  0  0  0  0  0  0  0  0
   -0.7471    0.3137    0.0731 C   0  0  0  0  0  0  0  0  0  0  0  0
   -0.5572   -0.9266   -0.0762 O   0  0  0  0  0  0  0  0  0  0  0  0
   -2.0248    0.8090    0.1512 N   0  0  0  0  0  0  0  0  0  0  0  0
   -2.2408    2.1406    0.3640 C   0  0  0  0  0  0  0  0  0  0  0  0
   -1.1734    3.0269    0.4814 C   0  0  0  0  0  0  0  0  0  0  0  0
   -3.1648   -0.0644    0.0201 C   0  0  0  0  0  0  0  0  0  0  0  0
   -4.1261   -0.1334    1.0428 C   0  0  0  0  0  0  0  0  0  0  0  0
   -5.2514   -0.9672    0.9151 C   0  0  0  0  0  0  0  0  0  0  0  0
   -5.3822   -1.7662   -0.2341 C   0  0  0  0  0  0  0  0  0  0  0  0
   -4.4316   -1.6967   -1.2554 C   0  0  0  0  0  0  0  0  0  0  0  0
   -3.3311   -0.8463   -1.1338 C   0  0  0  0  0  0  0  0  0  0  0  0
   -6.2503   -1.0763    2.0396 C   0  0  0  0  0  0  0  0  0  0  0  0
   -6.3587    0.1277    2.7140 F   0  0  0  0  0  0  0  0  0  0  0  0
   -5.8338   -2.0527    2.9249 F   0  0  0  0  0  0  0  0  0  0  0  0
   -7.5016   -1.4129    1.5528 F   0  0  0  0  0  0  0  0  0  0  0  0
    2.0703    3.3053   -0.2558 H   0  0  0  0  0  0  0  0  0  0  0  0
    0.9353    4.5780    0.2892 H   0  0  0  0  0  0  0  0  0  0  0  0
    1.7069    3.4987    1.5090 H   0  0  0  0  0  0  0  0  0  0  0  0
    1.5420    0.0047   -1.9511 H   0  0  0  0  0  0  0  0  0  0  0  0
    4.5197    0.1845    2.0296 H   0  0  0  0  0  0  0  0  0  0  0  0
    2.2357    1.1006    2.1592 H   0  0  0  0  0  0  0  0  0  0  0  0
    7.9956   -1.9928   -0.4716 H   0  0  0  0  0  0  0  0  0  0  0  0
    7.7335   -2.4695   -2.1883 H   0  0  0  0  0  0  0  0  0  0  0  0
    3.3715   -1.1317   -3.2164 H   0  0  0  0  0  0  0  0  0  0  0  0
   -3.2502    2.5307    0.4308 H   0  0  0  0  0  0  0  0  0  0  0  0
   -1.3749    4.0787    0.6439 H   0  0  0  0  0  0  0  0  0  0  0  0
   -3.9864    0.4568    1.9403 H   0  0  0  0  0  0  0  0  0  0  0  0
   -6.2190   -2.4447   -0.3426 H   0  0  0  0  0  0  0  0  0  0  0  0
   -4.5469   -2.3060   -2.1425 H   0  0  0  0  0  0  0  0  0  0  0  0
   -2.6071   -0.7946   -1.9373 H   0  0  0  0  0  0  0  0  0  0  0  0
  1  2  1  0
  2  3  2  0
  3  4  1  0
  4  5  2  0
  5  6  1  0
  6  7  2  0
  7  8  1  0
  8  9  2  0
  7 10  1  0
 10 11  2  0
 11 12  1  0
 11 13  1  0
 13 14  2  0
  3 15  1  0
 15 16  2  0
 15 17  1  0
 17 18  1  0
 18 19  2  0
 17 20  1  0
 20 21  2  0
 21 22  1  0
 22 23  2  0
 23 24  1  0
 24 25  2  0
 22 26  1  0
 26 27  1  0
 26 28  1  0
 26 29  1  0
 19  2  1  0
 25 20  1  0
  9  4  1  0
 14  6  1  0
  1 30  1  0
  1 31  1  0
  1 32  1  0
  5 33  1  0
  8 34  1  0
  9 35  1  0
 12 36  1  0
 12 37  1  0
 14 38  1  0
 18 39  1  0
 19 40  1  0
 21 41  1  0
 23 42  1  0
 24 43  1  0
 25 44  1  0
M  END
$$$$
