
     RDKit          3D

 28 29  0  0  0  0  0  0  0  0999 V2000
   -2.0135   -0.0364   -0.5855 C   0  0  1  0  0  0  0  0  0  0  0  0
   -2.2372   -1.3971   -1.0852 N   0  0  0  0  0  0  0  0  0  0  0  0
   -0.8590    0.6668   -1.3280 C   0  0  0  0  0  0  0  0  0  0  0  0
    0.4553   -0.0148   -1.0811 C   0  0  0  0  0  0  0  0  0  0  0  0
    1.0912   -0.9231   -1.9222 C   0  0  0  0  0  0  0  0  0  0  0  0
    2.2284   -1.3800   -1.3494 N   0  0  0  0  0  0  0  0  0  0  0  0
    2.3103   -0.7750   -0.1515 C   0  0  0  0  0  0  0  0  0  0  0  0
    1.2435    0.0630    0.0500 C   0  0  0  0  0  0  0  0  0  0  0  0
    1.0940    0.7927    1.2296 C   0  0  0  0  0  0  0  0  0  0  0  0
    2.0832    0.6482    2.2194 C   0  0  0  0  0  0  0  0  0  0  0  0
    3.1836   -0.2132    2.0116 C   0  0  0  0  0  0  0  0  0  0  0  0
    3.3044   -0.9390    0.8122 C   0  0  0  0  0  0  0  0  0  0  0  0
   -3.2764    0.7705   -0.7235 C   0  0  0  0  0  0  0  0  0  0  0  0
   -3.6694    1.6768    0.3076 N   0  0  0  0  0  0  0  0  0  0  0  0
   -3.9683    0.6881   -1.7741 O   0  0  0  0  0  0  0  0  0  0  0  0
   -1.7600   -0.0989    0.4966 H   0  0  0  0  0  0  0  0  0  0  0  0
   -1.4374   -2.0029   -0.7903 H   0  0  0  0  0  0  0  0  0  0  0  0
   -2.2575   -1.3916   -2.1314 H   0  0  0  0  0  0  0  0  0  0  0  0
   -0.7790    1.7198   -0.9796 H   0  0  0  0  0  0  0  0  0  0  0  0
   -1.0650    0.6944   -2.4205 H   0  0  0  0  0  0  0  0  0  0  0  0
    0.7347   -1.2400   -2.8936 H   0  0  0  0  0  0  0  0  0  0  0  0
    2.8977   -2.0718   -1.7541 H   0  0  0  0  0  0  0  0  0  0  0  0
    0.2470    1.4488    1.3828 H   0  0  0  0  0  0  0  0  0  0  0  0
    1.9997    1.1998    3.1467 H   0  0  0  0  0  0  0  0  0  0  0  0
    3.9377   -0.3173    2.7807 H   0  0  0  0  0  0  0  0  0  0  0  0
    4.1415   -1.6045    0.6456 H   0  0  0  0  0  0  0  0  0  0  0  0
   -3.0914    1.7899    1.1698 H   0  0  0  0  0  0  0  0  0  0  0  0
   -4.5382    2.2467    0.2043 H   0  0  0  0  0  0  0  0  0  0  0  0
  1  2  1  0
  1  3  1  0
  3  4  1  0
  4  5  2  0
  5  6  1  0
  6  7  1  0
  7  8  2  0
  8  9  1  0
  9 10  2  0
 10 11  1  0
 11 12  2  0
  1 13  1  0
 13 14  1  0
 13 15  2  0
  8  4  1  0
 12  7  1  0
  1 16  1  1
  2 17  1  0
  2 18  1  0
  3 19  1  0
  3 20  1  0
  5 21  1  0
  6 22  1  0
  9 23  1  0
 10 24  1  0
 11 25  1  0
 12 26  1  0
 14 27  1  0
 14 28  1  0
M  END
$$$$
