
     RDKit          3D

 34 36  0  0  0  0  0  0  0  0999 V2000
   -2.9985   -0.3801    1.9882 C   0  0  0  0  0  0  0  0  0  0  0  0
   -2.2593   -0.5997    0.7417 N   0  0  0  0  0  0  0  0  0  0  0  0
   -1.7131    0.5300    0.0325 C   0  0  0  0  0  0  0  0  0  0  0  0
   -0.4056    0.4963   -0.5078 C   0  0  0  0  0  0  0  0  0  0  0  0
    0.0747    1.6133   -1.2169 C   0  0  0  0  0  0  0  0  0  0  0  0
   -0.7179    2.7517   -1.3770 C   0  0  0  0  0  0  0  0  0  0  0  0
   -0.0992    4.1349   -2.2606 Cl  0  0  0  0  0  0  0  0  0  0  0  0
   -2.0020    2.7879   -0.8345 C   0  0  0  0  0  0  0  0  0  0  0  0
   -2.4974    1.6860   -0.1368 C   0  0  0  0  0  0  0  0  0  0  0  0
    0.4864   -0.6821   -0.3323 C   0  0  0  0  0  0  0  0  0  0  0  0
    0.0595   -1.8989   -0.5233 N   0  0  0  0  0  0  0  0  0  0  0  0
   -1.2866   -2.3233   -0.9061 C   0  0  0  0  0  0  0  0  0  0  0  0
   -1.6076   -1.8925   -2.2067 O   0  0  0  0  0  0  0  0  0  0  0  0
   -2.3046   -1.9000    0.1227 C   0  0  0  0  0  0  0  0  0  0  0  0
   -3.2130   -2.7144    0.4439 O   0  0  0  0  0  0  0  0  0  0  0  0
    1.9090   -0.4907    0.0550 C   0  0  0  0  0  0  0  0  0  0  0  0
    2.8903   -1.4110   -0.3612 C   0  0  0  0  0  0  0  0  0  0  0  0
    4.2273   -1.2376    0.0094 C   0  0  0  0  0  0  0  0  0  0  0  0
    4.5994   -0.1511    0.8038 C   0  0  0  0  0  0  0  0  0  0  0  0
    3.6345    0.7629    1.2326 C   0  0  0  0  0  0  0  0  0  0  0  0
    2.2961    0.5948    0.8650 C   0  0  0  0  0  0  0  0  0  0  0  0
   -4.0786   -0.2484    1.7669 H   0  0  0  0  0  0  0  0  0  0  0  0
   -2.8676   -1.2475    2.6698 H   0  0  0  0  0  0  0  0  0  0  0  0
   -2.6181    0.5226    2.5130 H   0  0  0  0  0  0  0  0  0  0  0  0
    1.0678    1.5984   -1.6496 H   0  0  0  0  0  0  0  0  0  0  0  0
   -2.6209    3.6674   -0.9585 H   0  0  0  0  0  0  0  0  0  0  0  0
   -3.5035    1.7282    0.2600 H   0  0  0  0  0  0  0  0  0  0  0  0
   -1.2760   -3.4339   -0.9288 H   0  0  0  0  0  0  0  0  0  0  0  0
   -1.8978   -0.9466   -2.1707 H   0  0  0  0  0  0  0  0  0  0  0  0
    2.6255   -2.2572   -0.9830 H   0  0  0  0  0  0  0  0  0  0  0  0
    4.9758   -1.9465   -0.3205 H   0  0  0  0  0  0  0  0  0  0  0  0
    5.6348   -0.0192    1.0901 H   0  0  0  0  0  0  0  0  0  0  0  0
    3.9228    1.6004    1.8546 H   0  0  0  0  0  0  0  0  0  0  0  0
    1.5633    1.3058    1.2252 H   0  0  0  0  0  0  0  0  0  0  0  0
  1  2  1  0
  2  3  1  0
  3  4  2  0
  4  5  1  0
  5  6  2  0
  6  7  1  0
  6  8  1  0
  8  9  2  0
  4 10  1  0
 10 11  2  0
 11 12  1  0
 12 13  1  0
 12 14  1  0
 14 15  2  0
 10 16  1  0
 16 17  2  0
 17 18  1  0
 18 19  2  0
 19 20  1  0
 20 21  2  0
 14  2  1  0
 21 16  1  0
  9  3  1  0
  1 22  1  0
  1 23  1  0
  1 24  1  0
  5 25  1  0
  8 26  1  0
  9 27  1  0
 12 28  1  0
 13 29  1  0
 17 30  1  0
 18 31  1  0
 19 32  1  0
 20 33  1  0
 21 34  1  0
M  END
$$$$
