
     RDKit          3D

 30 30  0  0  0  0  0  0  0  0999 V2000
    1.0031   -0.9573    0.0598 C   0  0  2  0  0  0  0  0  0  0  0  0
   -0.1634   -1.0489   -0.9403 C   0  0  0  0  0  0  0  0  0  0  0  0
   -1.3467   -0.2367   -0.4794 C   0  0  0  0  0  0  0  0  0  0  0  0
   -1.5290    1.0787   -0.9394 C   0  0  0  0  0  0  0  0  0  0  0  0
   -2.6005    1.8459   -0.4724 C   0  0  0  0  0  0  0  0  0  0  0  0
   -3.4934    1.3085    0.4587 C   0  0  0  0  0  0  0  0  0  0  0  0
   -3.3144    0.0040    0.9271 C   0  0  0  0  0  0  0  0  0  0  0  0
   -2.2432   -0.7662    0.4639 C   0  0  0  0  0  0  0  0  0  0  0  0
    1.4899    0.4244    0.1441 N   0  0  0  0  0  0  0  0  0  0  0  0
    1.1569    1.3056    1.2271 C   0  0  0  0  0  0  0  0  0  0  0  0
    1.5467    2.7458    1.1601 C   0  0  0  0  0  0  0  0  0  0  0  0
    0.5009    0.8859    2.2186 O   0  0  0  0  0  0  0  0  0  0  0  0
    2.1362   -1.8650   -0.3761 C   0  0  0  0  0  0  0  0  0  0  0  0
    2.6914   -1.6503   -1.4442 O   0  0  0  0  0  0  0  0  0  0  0  0
    2.6122   -3.0293    0.4556 C   0  0  0  0  0  0  0  0  0  0  0  0
    1.8903   -3.1596    1.6283 F   0  0  0  0  0  0  0  0  0  0  0  0
    3.9451   -2.8463    0.7739 F   0  0  0  0  0  0  0  0  0  0  0  0
    2.4809   -4.1949   -0.2763 F   0  0  0  0  0  0  0  0  0  0  0  0
    0.6270   -1.2844    1.0515 H   0  0  0  0  0  0  0  0  0  0  0  0
    0.1677   -0.7019   -1.9444 H   0  0  0  0  0  0  0  0  0  0  0  0
   -0.4733   -2.1119   -1.0507 H   0  0  0  0  0  0  0  0  0  0  0  0
   -0.8368    1.5122   -1.6506 H   0  0  0  0  0  0  0  0  0  0  0  0
   -2.7359    2.8587   -0.8290 H   0  0  0  0  0  0  0  0  0  0  0  0
   -4.3215    1.9043    0.8204 H   0  0  0  0  0  0  0  0  0  0  0  0
   -4.0030   -0.4089    1.6528 H   0  0  0  0  0  0  0  0  0  0  0  0
   -2.1081   -1.7715    0.8434 H   0  0  0  0  0  0  0  0  0  0  0  0
    1.9847    0.8293   -0.6835 H   0  0  0  0  0  0  0  0  0  0  0  0
    0.8933    3.2699    0.4319 H   0  0  0  0  0  0  0  0  0  0  0  0
    1.4389    3.2254    2.1561 H   0  0  0  0  0  0  0  0  0  0  0  0
    2.6039    2.8345    0.8336 H   0  0  0  0  0  0  0  0  0  0  0  0
  1  2  1  0
  2  3  1  0
  3  4  2  0
  4  5  1  0
  5  6  2  0
  6  7  1  0
  7  8  2  0
  1  9  1  0
  9 10  1  0
 10 11  1  0
 10 12  2  0
  1 13  1  0
 13 14  2  0
 13 15  1  0
 15 16  1  0
 15 17  1  0
 15 18  1  0
  8  3  1  0
  1 19  1  1
  2 20  1  0
  2 21  1  0
  4 22  1  0
  5 23  1  0
  6 24  1  0
  7 25  1  0
  8 26  1  0
  9 27  1  0
 11 28  1  0
 11 29  1  0
 11 30  1  0
M  END
$$$$
