
     RDKit          3D

 47 50  0  0  0  0  0  0  0  0999 V2000
   -3.5705   -1.0921   -1.2640 C   0  0  1  0  0  0  0  0  0  0  0  0
   -4.5697    0.0682   -1.3882 C   0  0  0  0  0  0  0  0  0  0  0  0
   -5.8885   -0.4091   -1.3984 O   0  0  0  0  0  0  0  0  0  0  0  0
   -2.2585   -0.5824   -1.4003 O   0  0  0  0  0  0  0  0  0  0  0  0
   -1.5113   -0.9938   -0.2767 C   0  0  1  0  0  0  0  0  0  0  0  0
   -0.5945    0.0731    0.1431 N   0  0  0  0  0  0  0  0  0  0  0  0
    0.6313   -0.0338    0.7323 C   0  0  0  0  0  0  0  0  0  0  0  0
    1.2838   -1.2854    0.9973 N   0  0  0  0  0  0  0  0  0  0  0  0
    2.6310   -1.3514    1.5584 C   0  0  0  0  0  0  0  0  0  0  0  0
    3.6421   -0.8957    0.5413 C   0  0  0  0  0  0  0  0  0  0  0  0
    4.3141    0.3264    0.6989 C   0  0  0  0  0  0  0  0  0  0  0  0
    5.2305    0.7551   -0.2646 C   0  0  0  0  0  0  0  0  0  0  0  0
    5.4846   -0.0284   -1.3956 C   0  0  0  0  0  0  0  0  0  0  0  0
    6.6431    0.5460   -2.5872 Cl  0  0  0  0  0  0  0  0  0  0  0  0
    4.8131   -1.2516   -1.5621 C   0  0  0  0  0  0  0  0  0  0  0  0
    5.0986   -2.2639   -2.9712 Cl  0  0  0  0  0  0  0  0  0  0  0  0
    3.8951   -1.6790   -0.5954 C   0  0  0  0  0  0  0  0  0  0  0  0
    1.1837    1.1649    1.0709 N   0  0  0  0  0  0  0  0  0  0  0  0
    0.2441    2.0426    0.6788 C   0  0  0  0  0  0  0  0  0  0  0  0
    0.2341    3.4284    0.7853 C   0  0  0  0  0  0  0  0  0  0  0  0
    1.3311    4.1468    1.3499 N   0  0  0  0  0  0  0  0  0  0  0  0
   -0.8717    4.0906    0.3312 N   0  0  0  0  0  0  0  0  0  0  0  0
   -1.9367    3.4151   -0.2087 C   0  0  0  0  0  0  0  0  0  0  0  0
   -1.9150    2.0519   -0.3074 N   0  0  0  0  0  0  0  0  0  0  0  0
   -0.8148    1.3971    0.1376 C   0  0  0  0  0  0  0  0  0  0  0  0
   -2.4786   -1.3446    0.8441 C   0  0  2  0  0  0  0  0  0  0  0  0
   -1.9642   -2.3453    1.6841 O   0  0  0  0  0  0  0  0  0  0  0  0
   -3.6964   -1.8173    0.0869 C   0  0  2  0  0  0  0  0  0  0  0  0
   -3.7073   -3.2168   -0.0841 O   0  0  0  0  0  0  0  0  0  0  0  0
   -3.7590   -1.8003   -2.1014 H   0  0  0  0  0  0  0  0  0  0  0  0
   -4.4471    0.7637   -0.5306 H   0  0  0  0  0  0  0  0  0  0  0  0
   -4.3653    0.6448   -2.3192 H   0  0  0  0  0  0  0  0  0  0  0  0
   -6.0424   -0.8002   -2.2979 H   0  0  0  0  0  0  0  0  0  0  0  0
   -0.9314   -1.8925   -0.5791 H   0  0  0  0  0  0  0  0  0  0  0  0
    0.7911   -2.1848    0.8070 H   0  0  0  0  0  0  0  0  0  0  0  0
    2.8591   -2.4005    1.8469 H   0  0  0  0  0  0  0  0  0  0  0  0
    2.6808   -0.7398    2.4856 H   0  0  0  0  0  0  0  0  0  0  0  0
    4.1262    0.9501    1.5641 H   0  0  0  0  0  0  0  0  0  0  0  0
    5.7419    1.7001   -0.1319 H   0  0  0  0  0  0  0  0  0  0  0  0
    3.3744   -2.6195   -0.7305 H   0  0  0  0  0  0  0  0  0  0  0  0
    2.1802    3.6468    1.6960 H   0  0  0  0  0  0  0  0  0  0  0  0
    1.2958    5.1879    1.4200 H   0  0  0  0  0  0  0  0  0  0  0  0
   -2.8000    3.9645   -0.5577 H   0  0  0  0  0  0  0  0  0  0  0  0
   -2.7486   -0.4345    1.4318 H   0  0  0  0  0  0  0  0  0  0  0  0
   -1.3309   -1.8950    2.3015 H   0  0  0  0  0  0  0  0  0  0  0  0
   -4.6189   -1.5303    0.6387 H   0  0  0  0  0  0  0  0  0  0  0  0
   -2.8882   -3.4762   -0.5829 H   0  0  0  0  0  0  0  0  0  0  0  0
  1  2  1  0
  2  3  1  0
  1  4  1  0
  4  5  1  0
  5  6  1  0
  6  7  1  0
  7  8  1  0
  8  9  1  0
  9 10  1  0
 10 11  2  0
 11 12  1  0
 12 13  2  0
 13 14  1  0
 13 15  1  0
 15 16  1  0
 15 17  2  0
  7 18  2  0
 18 19  1  0
 19 20  2  0
 20 21  1  0
 20 22  1  0
 22 23  2  0
 23 24  1  0
 24 25  2  0
  5 26  1  0
 26 27  1  0
 26 28  1  0
 28 29  1  0
 28  1  1  0
 25  6  1  0
 17 10  1  0
 25 19  1  0
  1 30  1  6
  2 31  1  0
  2 32  1  0
  3 33  1  0
  5 34  1  6
  8 35  1  0
  9 36  1  0
  9 37  1  0
 11 38  1  0
 12 39  1  0
 17 40  1  0
 21 41  1  0
 21 42  1  0
 23 43  1  0
 26 44  1  1
 27 45  1  0
 28 46  1  1
 29 47  1  0
M  END
$$$$
