
     RDKit          3D

 37 38  0  0  0  0  0  0  0  0999 V2000
    2.3206   -0.1136    0.8691 N   0  0  0  0  0  0  0  0  0  0  0  0
    3.7406   -0.2573    1.0228 C   0  0  0  0  0  0  0  0  0  0  0  0
    4.2874   -1.1733    2.0685 C   0  0  0  0  0  0  0  0  0  0  0  0
    4.5336    0.4106    0.3056 O   0  0  0  0  0  0  0  0  0  0  0  0
    1.7171    0.7920   -0.1194 C   0  0  2  0  0  0  0  0  0  0  0  0
    0.2549    1.1528    0.2633 C   0  0  0  0  0  0  0  0  0  0  0  0
   -0.8456    0.0946    0.1329 C   0  0  0  0  0  0  0  0  0  0  0  0
   -2.2205    0.4758    0.1958 C   0  0  0  0  0  0  0  0  0  0  0  0
   -2.6243    1.8122    0.4270 C   0  0  0  0  0  0  0  0  0  0  0  0
   -3.9782    2.1543    0.4641 C   0  0  0  0  0  0  0  0  0  0  0  0
   -4.9563    1.1793    0.2817 C   0  0  0  0  0  0  0  0  0  0  0  0
   -4.5885   -0.1488    0.0729 C   0  0  0  0  0  0  0  0  0  0  0  0
   -3.2327   -0.5121    0.0366 C   0  0  0  0  0  0  0  0  0  0  0  0
   -2.8817   -1.8538   -0.1438 C   0  0  0  0  0  0  0  0  0  0  0  0
   -1.5448   -2.2316   -0.1482 C   0  0  0  0  0  0  0  0  0  0  0  0
   -0.5406   -1.2772   -0.0010 C   0  0  0  0  0  0  0  0  0  0  0  0
    1.9248    0.2829   -1.6732 B   0  0  0  0  0  4  0  0  0  0  0  0
    2.1793   -1.1778   -1.7181 O   0  0  0  0  0  0  0  0  0  0  0  0
    0.7141    0.5853   -2.4687 O   0  0  0  0  0  0  0  0  0  0  0  0
    3.0739    1.0101   -2.2623 O   0  0  0  0  0  0  0  0  0  0  0  0
    1.7140   -0.5667    1.5899 H   0  0  0  0  0  0  0  0  0  0  0  0
    4.1530   -0.7132    3.0694 H   0  0  0  0  0  0  0  0  0  0  0  0
    3.7483   -2.1432    2.0361 H   0  0  0  0  0  0  0  0  0  0  0  0
    5.3686   -1.3602    1.8959 H   0  0  0  0  0  0  0  0  0  0  0  0
    2.2664    1.7575   -0.0442 H   0  0  0  0  0  0  0  0  0  0  0  0
   -0.0183    2.0178   -0.3791 H   0  0  0  0  0  0  0  0  0  0  0  0
    0.2518    1.5206    1.3126 H   0  0  0  0  0  0  0  0  0  0  0  0
   -1.9111    2.6053    0.5982 H   0  0  0  0  0  0  0  0  0  0  0  0
   -4.2700    3.1819    0.6400 H   0  0  0  0  0  0  0  0  0  0  0  0
   -6.0033    1.4521    0.3120 H   0  0  0  0  0  0  0  0  0  0  0  0
   -5.3647   -0.8945   -0.0535 H   0  0  0  0  0  0  0  0  0  0  0  0
   -3.6438   -2.6151   -0.2628 H   0  0  0  0  0  0  0  0  0  0  0  0
   -1.2823   -3.2753   -0.2654 H   0  0  0  0  0  0  0  0  0  0  0  0
    0.4718   -1.6378    0.0021 H   0  0  0  0  0  0  0  0  0  0  0  0
    3.1448   -1.3122   -1.5387 H   0  0  0  0  0  0  0  0  0  0  0  0
    0.8352    0.1413   -3.3469 H   0  0  0  0  0  0  0  0  0  0  0  0
    3.2067    0.6374   -3.1715 H   0  0  0  0  0  0  0  0  0  0  0  0
  1  2  1  0
  2  3  1  0
  2  4  2  0
  1  5  1  0
  5  6  1  0
  6  7  1  0
  7  8  2  0
  8  9  1  0
  9 10  2  0
 10 11  1  0
 11 12  2  0
 12 13  1  0
 13 14  2  0
 14 15  1  0
 15 16  2  0
  5 17  1  0
 17 18  1  0
 17 19  1  0
 17 20  1  0
 16  7  1  0
 13  8  1  0
  1 21  1  0
  3 22  1  0
  3 23  1  0
  3 24  1  0
  5 25  1  6
  6 26  1  0
  6 27  1  0
  9 28  1  0
 10 29  1  0
 11 30  1  0
 12 31  1  0
 14 32  1  0
 15 33  1  0
 16 34  1  0
 18 35  1  0
 19 36  1  0
 20 37  1  0
M  CHG  1  17  -1
M  END
$$$$
