
     RDKit          3D

 59 60  0  0  0  0  0  0  0  0999 V2000
   -7.8000    0.9788    2.6408 N   0  0  0  0  0  0  0  0  0  0  0  0
   -8.5947    0.6946    1.4489 C   0  0  0  0  0  0  0  0  0  0  0  0
   -7.6952    0.2794    0.2791 C   0  0  0  0  0  0  0  0  0  0  0  0
   -6.9560   -1.0378    0.5661 C   0  0  0  0  0  0  0  0  0  0  0  0
   -6.2014   -1.5811   -0.6608 C   0  0  0  0  0  0  0  0  0  0  0  0
   -5.0964   -0.6571   -1.2051 C   0  0  0  0  0  0  0  0  0  0  0  0
   -3.9890   -0.3768   -0.1864 C   0  0  0  0  0  0  0  0  0  0  0  0
   -2.9383    0.3005   -0.8332 O   0  0  0  0  0  0  0  0  0  0  0  0
   -1.7416    0.6765    0.3254 P   0  0  0  0  0  5  0  0  0  0  0  0
   -1.3413   -0.6944    1.2372 O   0  0  0  0  0  0  0  0  0  0  0  0
   -2.2721    1.7440    1.2560 O   0  0  0  0  0  0  0  0  0  0  0  0
   -0.3450    1.2788   -0.4373 O   0  0  0  0  0  0  0  0  0  0  0  0
    0.0537    0.2124   -1.7068 P   0  0  0  0  0  5  0  0  0  0  0  0
   -0.0014   -1.4039   -1.1993 O   0  0  0  0  0  0  0  0  0  0  0  0
   -0.9244    0.4015   -2.8442 O   0  0  0  0  0  0  0  0  0  0  0  0
    1.6195    0.5517   -2.2935 O   0  0  0  0  0  0  0  0  0  0  0  0
    2.4365    0.9353   -1.2124 C   0  0  0  0  0  0  0  0  0  0  0  0
    3.8944    1.0232   -1.6755 C   0  0  1  0  0  0  0  0  0  0  0  0
    4.6887    1.5310   -0.6274 O   0  0  0  0  0  0  0  0  0  0  0  0
    5.9648    0.9265   -0.7182 C   0  0  2  0  0  0  0  0  0  0  0  0
    5.9314   -0.1841   -1.7793 C   0  0  2  0  0  0  0  0  0  0  0  0
    6.6836    0.1720   -2.9173 O   0  0  0  0  0  0  0  0  0  0  0  0
    4.4584   -0.3341   -2.0863 C   0  0  2  0  0  0  0  0  0  0  0  0
    4.2373   -0.5988   -3.4487 O   0  0  0  0  0  0  0  0  0  0  0  0
    6.3649    0.3772    0.5954 N   0  0  0  0  0  0  0  0  0  0  0  0
    5.4354   -0.2530    1.3790 C   0  0  0  0  0  0  0  0  0  0  0  0
    5.7955   -0.8059    2.6044 C   0  0  0  0  0  0  0  0  0  0  0  0
    7.1228   -0.7210    3.0095 C   0  0  0  0  0  0  0  0  0  0  0  0
    7.4771   -1.2115    4.1146 O   0  0  0  0  0  0  0  0  0  0  0  0
    8.0360   -0.1135    2.2082 N   0  0  0  0  0  0  0  0  0  0  0  0
    7.6745    0.4234    1.0095 C   0  0  0  0  0  0  0  0  0  0  0  0
    8.5593    0.9578    0.2855 O   0  0  0  0  0  0  0  0  0  0  0  0
   -7.2486    1.8505    2.4666 H   0  0  0  0  0  0  0  0  0  0  0  0
   -8.4623    1.1967    3.4200 H   0  0  0  0  0  0  0  0  0  0  0  0
   -9.3201   -0.1189    1.6701 H   0  0  0  0  0  0  0  0  0  0  0  0
   -9.1740    1.6002    1.1608 H   0  0  0  0  0  0  0  0  0  0  0  0
   -8.3291    0.1568   -0.6260 H   0  0  0  0  0  0  0  0  0  0  0  0
   -6.9655    1.0937    0.0834 H   0  0  0  0  0  0  0  0  0  0  0  0
   -7.6989   -1.8071    0.8710 H   0  0  0  0  0  0  0  0  0  0  0  0
   -6.2560   -0.9079    1.4182 H   0  0  0  0  0  0  0  0  0  0  0  0
   -6.9326   -1.7753   -1.4755 H   0  0  0  0  0  0  0  0  0  0  0  0
   -5.7497   -2.5609   -0.3921 H   0  0  0  0  0  0  0  0  0  0  0  0
   -4.6426   -1.1552   -2.0899 H   0  0  0  0  0  0  0  0  0  0  0  0
   -5.5313    0.3004   -1.5617 H   0  0  0  0  0  0  0  0  0  0  0  0
   -3.6300   -1.3484    0.2220 H   0  0  0  0  0  0  0  0  0  0  0  0
   -4.4088    0.2500    0.6320 H   0  0  0  0  0  0  0  0  0  0  0  0
   -0.5693   -0.4131    1.7902 H   0  0  0  0  0  0  0  0  0  0  0  0
    0.7121   -1.4859   -0.5182 H   0  0  0  0  0  0  0  0  0  0  0  0
    2.3746    0.2141   -0.3654 H   0  0  0  0  0  0  0  0  0  0  0  0
    2.1303    1.9428   -0.8519 H   0  0  0  0  0  0  0  0  0  0  0  0
    3.9543    1.7332   -2.5321 H   0  0  0  0  0  0  0  0  0  0  0  0
    6.6754    1.7256   -1.0267 H   0  0  0  0  0  0  0  0  0  0  0  0
    6.3355   -1.1422   -1.3828 H   0  0  0  0  0  0  0  0  0  0  0  0
    6.3225    1.0267   -3.2728 H   0  0  0  0  0  0  0  0  0  0  0  0
    4.0422   -1.1513   -1.4485 H   0  0  0  0  0  0  0  0  0  0  0  0
    3.3419   -1.0207   -3.5161 H   0  0  0  0  0  0  0  0  0  0  0  0
    4.4044   -0.3365    1.0596 H   0  0  0  0  0  0  0  0  0  0  0  0
    5.0541   -1.2961    3.2234 H   0  0  0  0  0  0  0  0  0  0  0  0
    9.0347   -0.0632    2.5146 H   0  0  0  0  0  0  0  0  0  0  0  0
  1  2  1  0
  2  3  1  0
  3  4  1  0
  4  5  1  0
  5  6  1  0
  6  7  1  0
  7  8  1  0
  8  9  1  0
  9 10  1  0
  9 11  2  0
  9 12  1  0
 12 13  1  0
 13 14  1  0
 13 15  2  0
 13 16  1  0
 16 17  1  0
 17 18  1  0
 18 19  1  0
 19 20  1  0
 20 21  1  0
 21 22  1  0
 21 23  1  0
 23 24  1  0
 20 25  1  0
 25 26  1  0
 26 27  2  0
 27 28  1  0
 28 29  2  0
 28 30  1  0
 30 31  1  0
 31 32  2  0
 23 18  1  0
 31 25  1  0
  1 33  1  0
  1 34  1  0
  2 35  1  0
  2 36  1  0
  3 37  1  0
  3 38  1  0
  4 39  1  0
  4 40  1  0
  5 41  1  0
  5 42  1  0
  6 43  1  0
  6 44  1  0
  7 45  1  0
  7 46  1  0
 10 47  1  0
 14 48  1  0
 17 49  1  0
 17 50  1  0
 18 51  1  6
 20 52  1  6
 21 53  1  1
 22 54  1  0
 23 55  1  1
 24 56  1  0
 26 57  1  0
 27 58  1  0
 30 59  1  0
M  END
$$$$
