
     RDKit          3D

 66 69  0  0  0  0  0  0  0  0999 V2000
    8.2081   -0.6400   -4.6163 C   0  0  0  0  0  0  0  0  0  0  0  0
    6.7920   -0.6915   -4.4768 O   0  0  0  0  0  0  0  0  0  0  0  0
    6.1073   -0.4844   -3.2700 C   0  0  0  0  0  0  0  0  0  0  0  0
    4.7102   -0.5650   -3.2754 C   0  0  0  0  0  0  0  0  0  0  0  0
    3.9832   -0.3649   -2.0987 C   0  0  0  0  0  0  0  0  0  0  0  0
    4.6402   -0.0673   -0.9001 C   0  0  0  0  0  0  0  0  0  0  0  0
    3.8670    0.1151    0.2549 O   0  0  0  0  0  0  0  0  0  0  0  0
    4.2098    0.9206    1.3500 C   0  0  0  0  0  0  0  0  0  0  0  0
    5.1329    1.7751    1.2495 O   0  0  0  0  0  0  0  0  0  0  0  0
    3.4603    0.8109    2.5762 N   0  0  0  0  0  0  0  0  0  0  0  0
    3.8191    1.6325    3.7393 C   0  0  0  0  0  0  0  0  0  0  0  0
    5.0222    1.0616    4.4185 C   0  0  0  0  0  0  0  0  0  0  0  0
    4.8962   -0.0812    5.2016 O   0  0  0  0  0  0  0  0  0  0  0  0
    6.1526    1.5948    4.2582 O   0  0  0  0  0  0  0  0  0  0  0  0
    2.3600   -0.1578    2.6746 C   0  0  0  0  0  0  0  0  0  0  0  0
    1.1732    0.3130    1.8763 C   0  0  0  0  0  0  0  0  0  0  0  0
    0.4405    1.4314    2.3002 C   0  0  0  0  0  0  0  0  0  0  0  0
   -0.6491    1.8880    1.5532 C   0  0  0  0  0  0  0  0  0  0  0  0
   -1.0242    1.2268    0.3677 C   0  0  0  0  0  0  0  0  0  0  0  0
   -2.1169    1.6309   -0.4156 O   0  0  0  0  0  0  0  0  0  0  0  0
   -3.0775    2.6247   -0.0536 C   0  0  0  0  0  0  0  0  0  0  0  0
   -4.0230    2.1164    1.0401 C   0  0  0  0  0  0  0  0  0  0  0  0
   -4.7159    0.8546    0.6146 C   0  0  0  0  0  0  0  0  0  0  0  0
   -4.5185   -0.4172    1.1140 C   0  0  0  0  0  0  0  0  0  0  0  0
   -3.5969   -0.8349    2.2128 C   0  0  0  0  0  0  0  0  0  0  0  0
   -5.2933   -1.2348    0.4474 O   0  0  0  0  0  0  0  0  0  0  0  0
   -5.9500   -0.5112   -0.4347 C   0  0  0  0  0  0  0  0  0  0  0  0
   -5.6270    0.8008   -0.3759 N   0  0  0  0  0  0  0  0  0  0  0  0
   -6.9298   -1.0728   -1.3860 C   0  0  0  0  0  0  0  0  0  0  0  0
   -7.2089   -2.4505   -1.3819 C   0  0  0  0  0  0  0  0  0  0  0  0
   -8.1358   -2.9858   -2.2820 C   0  0  0  0  0  0  0  0  0  0  0  0
   -8.7908   -2.1524   -3.1921 C   0  0  0  0  0  0  0  0  0  0  0  0
   -8.5201   -0.7819   -3.2040 C   0  0  0  0  0  0  0  0  0  0  0  0
   -7.5941   -0.2417   -2.3060 C   0  0  0  0  0  0  0  0  0  0  0  0
   -0.2836    0.1180   -0.0572 C   0  0  0  0  0  0  0  0  0  0  0  0
    0.8044   -0.3399    0.6901 C   0  0  0  0  0  0  0  0  0  0  0  0
    6.0452   -0.0039   -0.8847 C   0  0  0  0  0  0  0  0  0  0  0  0
    6.7734   -0.2052   -2.0615 C   0  0  0  0  0  0  0  0  0  0  0  0
    8.5830    0.3671   -4.3362 H   0  0  0  0  0  0  0  0  0  0  0  0
    8.6829   -1.4157   -3.9792 H   0  0  0  0  0  0  0  0  0  0  0  0
    8.4755   -0.8370   -5.6746 H   0  0  0  0  0  0  0  0  0  0  0  0
    4.1855   -0.7854   -4.1964 H   0  0  0  0  0  0  0  0  0  0  0  0
    2.9026   -0.4327   -2.1194 H   0  0  0  0  0  0  0  0  0  0  0  0
    4.0082    2.6815    3.4229 H   0  0  0  0  0  0  0  0  0  0  0  0
    2.9826    1.6678    4.4699 H   0  0  0  0  0  0  0  0  0  0  0  0
    5.7030   -0.4894    5.6583 H   0  0  0  0  0  0  0  0  0  0  0  0
    2.7101   -1.1545    2.3270 H   0  0  0  0  0  0  0  0  0  0  0  0
    2.0468   -0.2942    3.7327 H   0  0  0  0  0  0  0  0  0  0  0  0
    0.7155    1.9523    3.2089 H   0  0  0  0  0  0  0  0  0  0  0  0
   -1.1862    2.7561    1.9069 H   0  0  0  0  0  0  0  0  0  0  0  0
   -3.6749    2.8768   -0.9557 H   0  0  0  0  0  0  0  0  0  0  0  0
   -2.5714    3.5589    0.2692 H   0  0  0  0  0  0  0  0  0  0  0  0
   -3.4632    1.9511    1.9832 H   0  0  0  0  0  0  0  0  0  0  0  0
   -4.7904    2.8934    1.2428 H   0  0  0  0  0  0  0  0  0  0  0  0
   -2.5459   -0.6434    1.9166 H   0  0  0  0  0  0  0  0  0  0  0  0
   -3.8308   -0.2662    3.1367 H   0  0  0  0  0  0  0  0  0  0  0  0
   -3.7202   -1.9188    2.4175 H   0  0  0  0  0  0  0  0  0  0  0  0
   -6.7114   -3.1127   -0.6842 H   0  0  0  0  0  0  0  0  0  0  0  0
   -8.3462   -4.0475   -2.2737 H   0  0  0  0  0  0  0  0  0  0  0  0
   -9.5079   -2.5685   -3.8879 H   0  0  0  0  0  0  0  0  0  0  0  0
   -9.0281   -0.1372   -3.9096 H   0  0  0  0  0  0  0  0  0  0  0  0
   -7.3985    0.8230   -2.3317 H   0  0  0  0  0  0  0  0  0  0  0  0
   -0.5588   -0.3969   -0.9690 H   0  0  0  0  0  0  0  0  0  0  0  0
    1.3594   -1.2016    0.3405 H   0  0  0  0  0  0  0  0  0  0  0  0
    6.5839    0.1696    0.0367 H   0  0  0  0  0  0  0  0  0  0  0  0
    7.8526   -0.1507   -2.0188 H   0  0  0  0  0  0  0  0  0  0  0  0
  1  2  1  0
  2  3  1  0
  3  4  2  0
  4  5  1  0
  5  6  2  0
  6  7  1  0
  7  8  1  0
  8  9  2  0
  8 10  1  0
 10 11  1  0
 11 12  1  0
 12 13  1  0
 12 14  2  0
 10 15  1  0
 15 16  1  0
 16 17  2  0
 17 18  1  0
 18 19  2  0
 19 20  1  0
 20 21  1  0
 21 22  1  0
 22 23  1  0
 23 24  2  0
 24 25  1  0
 24 26  1  0
 26 27  1  0
 27 28  2  0
 27 29  1  0
 29 30  2  0
 30 31  1  0
 31 32  2  0
 32 33  1  0
 33 34  2  0
 19 35  1  0
 35 36  2  0
  6 37  1  0
 37 38  2  0
 38  3  1  0
 36 16  1  0
 28 23  1  0
 34 29  1  0
  1 39  1  0
  1 40  1  0
  1 41  1  0
  4 42  1  0
  5 43  1  0
 11 44  1  0
 11 45  1  0
 13 46  1  0
 15 47  1  0
 15 48  1  0
 17 49  1  0
 18 50  1  0
 21 51  1  0
 21 52  1  0
 22 53  1  0
 22 54  1  0
 25 55  1  0
 25 56  1  0
 25 57  1  0
 30 58  1  0
 31 59  1  0
 32 60  1  0
 33 61  1  0
 34 62  1  0
 35 63  1  0
 36 64  1  0
 37 65  1  0
 38 66  1  0
M  END
$$$$
