
     RDKit          3D

 25 26  0  0  0  0  0  0  0  0999 V2000
   -1.6733   -1.5816    1.7476 N   0  0  0  0  0  0  0  0  0  0  0  0
   -1.9558   -1.3019    0.5125 C   0  0  0  0  0  0  0  0  0  0  0  0
   -0.9587   -1.6493   -0.5559 C   0  0  0  0  0  0  0  0  0  0  0  0
   -0.0955   -0.4641   -0.8676 C   0  0  0  0  0  0  0  0  0  0  0  0
   -0.2862    0.4547   -1.8957 C   0  0  0  0  0  0  0  0  0  0  0  0
    0.6483    1.4308   -1.8358 N   0  0  0  0  0  0  0  0  0  0  0  0
    1.4203    1.1419   -0.7738 C   0  0  0  0  0  0  0  0  0  0  0  0
    2.5103    1.8698   -0.2984 C   0  0  0  0  0  0  0  0  0  0  0  0
    3.1712    1.3910    0.8477 C   0  0  0  0  0  0  0  0  0  0  0  0
    2.7314    0.2105    1.4869 C   0  0  0  0  0  0  0  0  0  0  0  0
    1.6273   -0.5029    0.9856 C   0  0  0  0  0  0  0  0  0  0  0  0
    0.9948   -0.0053   -0.1541 C   0  0  0  0  0  0  0  0  0  0  0  0
   -3.2112   -0.6024    0.1620 C   0  0  0  0  0  0  0  0  0  0  0  0
   -3.4858   -0.2849   -1.1651 O   0  0  0  0  0  0  0  0  0  0  0  0
   -4.0402   -0.2887    1.0584 O   0  0  0  0  0  0  0  0  0  0  0  0
   -2.3121   -1.3505    2.5409 H   0  0  0  0  0  0  0  0  0  0  0  0
   -0.3186   -2.4948   -0.2224 H   0  0  0  0  0  0  0  0  0  0  0  0
   -1.4855   -1.9845   -1.4750 H   0  0  0  0  0  0  0  0  0  0  0  0
   -1.0706    0.4153   -2.6403 H   0  0  0  0  0  0  0  0  0  0  0  0
    0.7404    2.2481   -2.4793 H   0  0  0  0  0  0  0  0  0  0  0  0
    2.8372    2.7756   -0.7925 H   0  0  0  0  0  0  0  0  0  0  0  0
    4.0210    1.9320    1.2432 H   0  0  0  0  0  0  0  0  0  0  0  0
    3.2466   -0.1474    2.3688 H   0  0  0  0  0  0  0  0  0  0  0  0
    1.2847   -1.4071    1.4712 H   0  0  0  0  0  0  0  0  0  0  0  0
   -4.3404    0.1959   -1.4191 H   0  0  0  0  0  0  0  0  0  0  0  0
  1  2  2  3
  2  3  1  0
  3  4  1  0
  4  5  2  0
  5  6  1  0
  6  7  1  0
  7  8  2  0
  8  9  1  0
  9 10  2  0
 10 11  1  0
 11 12  2  0
  2 13  1  0
 13 14  1  0
 13 15  2  0
 12  4  1  0
 12  7  1  0
  1 16  1  0
  3 17  1  0
  3 18  1  0
  5 19  1  0
  6 20  1  0
  8 21  1  0
  9 22  1  0
 10 23  1  0
 11 24  1  0
 14 25  1  0
M  END
$$$$
