
     RDKit          3D

 27 27  0  0  0  0  0  0  0  0999 V2000
   -1.4159    1.6379    0.2382 C   0  0  0  0  0  0  0  0  0  0  0  0
   -1.7021    0.1854   -0.1939 C   0  0  2  0  0  0  0  0  0  0  0  0
   -1.6141   -0.6831    0.9898 N   0  0  0  0  0  0  0  0  0  0  0  0
   -0.6769   -0.2824   -1.2632 C   0  0  0  0  0  0  0  0  0  0  0  0
    0.7484   -0.3077   -0.7602 C   0  0  0  0  0  0  0  0  0  0  0  0
    1.5885    0.8028   -0.9491 C   0  0  0  0  0  0  0  0  0  0  0  0
    2.9020    0.7842   -0.4706 C   0  0  0  0  0  0  0  0  0  0  0  0
    3.3907   -0.3446    0.2006 C   0  0  0  0  0  0  0  0  0  0  0  0
    4.6974   -0.3745    0.6822 O   0  0  0  0  0  0  0  0  0  0  0  0
    2.5593   -1.4531    0.3896 C   0  0  0  0  0  0  0  0  0  0  0  0
    1.2453   -1.4368   -0.0875 C   0  0  0  0  0  0  0  0  0  0  0  0
   -3.0935    0.1184   -0.7988 C   0  0  0  0  0  0  0  0  0  0  0  0
   -4.0249   -0.8095   -0.3382 O   0  0  0  0  0  0  0  0  0  0  0  0
   -3.4083    0.8911   -1.7449 O   0  0  0  0  0  0  0  0  0  0  0  0
   -2.2223    2.0092    0.9071 H   0  0  0  0  0  0  0  0  0  0  0  0
   -1.3542    2.3105   -0.6445 H   0  0  0  0  0  0  0  0  0  0  0  0
   -0.4590    1.6995    0.7985 H   0  0  0  0  0  0  0  0  0  0  0  0
   -1.8191   -1.6728    0.7179 H   0  0  0  0  0  0  0  0  0  0  0  0
   -2.3367   -0.3970    1.6911 H   0  0  0  0  0  0  0  0  0  0  0  0
   -0.9508   -1.3020   -1.6155 H   0  0  0  0  0  0  0  0  0  0  0  0
   -0.7388    0.3769   -2.1579 H   0  0  0  0  0  0  0  0  0  0  0  0
    1.2249    1.6840   -1.4630 H   0  0  0  0  0  0  0  0  0  0  0  0
    3.5382    1.6470   -0.6211 H   0  0  0  0  0  0  0  0  0  0  0  0
    5.3243    0.4124    0.5612 H   0  0  0  0  0  0  0  0  0  0  0  0
    2.9321   -2.3280    0.9069 H   0  0  0  0  0  0  0  0  0  0  0  0
    0.6161   -2.3046    0.0662 H   0  0  0  0  0  0  0  0  0  0  0  0
   -4.9507   -0.8633   -0.7458 H   0  0  0  0  0  0  0  0  0  0  0  0
  1  2  1  0
  2  3  1  1
  2  4  1  0
  4  5  1  0
  5  6  2  0
  6  7  1  0
  7  8  2  0
  8  9  1  0
  8 10  1  0
 10 11  2  0
  2 12  1  0
 12 13  1  0
 12 14  2  0
 11  5  1  0
  1 15  1  0
  1 16  1  0
  1 17  1  0
  3 18  1  0
  3 19  1  0
  4 20  1  0
  4 21  1  0
  6 22  1  0
  7 23  1  0
  9 24  1  0
 10 25  1  0
 11 26  1  0
 13 27  1  0
M  END
$$$$
