
     RDKit          3D

 13 13  0  0  0  0  0  0  0  0999 V2000
    2.0955    0.1378    0.0498 N   0  0  0  0  0  0  0  0  0  0  0  0
    0.6691    0.0440    0.0159 C   0  0  0  0  0  0  0  0  0  0  0  0
   -0.0973    1.1020   -0.4895 C   0  0  0  0  0  0  0  0  0  0  0  0
   -1.4899    0.9902   -0.5137 C   0  0  0  0  0  0  0  0  0  0  0  0
   -2.0918   -0.1375   -0.0498 N   0  0  0  0  0  0  0  0  0  0  0  0
   -1.3702   -1.1782    0.4457 C   0  0  0  0  0  0  0  0  0  0  0  0
    0.0247   -1.1068    0.4878 C   0  0  0  0  0  0  0  0  0  0  0  0
    2.5834    0.9924   -0.3001 H   0  0  0  0  0  0  0  0  0  0  0  0
    2.6739   -0.6467    0.4252 H   0  0  0  0  0  0  0  0  0  0  0  0
    0.3783    2.0014   -0.8598 H   0  0  0  0  0  0  0  0  0  0  0  0
   -2.0925    1.8005   -0.9017 H   0  0  0  0  0  0  0  0  0  0  0  0
   -1.8792   -2.0617    0.8072 H   0  0  0  0  0  0  0  0  0  0  0  0
    0.5959   -1.9374    0.8830 H   0  0  0  0  0  0  0  0  0  0  0  0
  1  2  1  0
  2  3  2  0
  3  4  1  0
  4  5  2  0
  5  6  1  0
  6  7  2  0
  7  2  1  0
  1  8  1  0
  1  9  1  0
  3 10  1  0
  4 11  1  0
  6 12  1  0
  7 13  1  0
M  END
$$$$
