
     RDKit          3D

 52 53  0  0  0  0  0  0  0  0999 V2000
   -0.0798   -2.1426   -0.0484 C   0  0  2  0  0  0  0  0  0  0  0  0
   -1.2113   -3.1853    0.0931 C   0  0  0  0  0  0  0  0  0  0  0  0
   -2.0227   -3.4260   -1.2047 C   0  0  0  0  0  0  0  0  0  0  0  0
   -3.2271   -4.3283   -0.9061 C   0  0  0  0  0  0  0  0  0  0  0  0
   -1.1650   -4.0537   -2.3140 C   0  0  0  0  0  0  0  0  0  0  0  0
    0.6412   -1.9996    1.2202 N   0  0  0  0  0  0  0  0  0  0  0  0
    1.8306   -1.2089    1.3258 C   0  0  0  0  0  0  0  0  0  0  0  0
    2.4405   -0.8368    0.2852 O   0  0  0  0  0  0  0  0  0  0  0  0
    2.2914   -0.8305    2.5908 O   0  0  0  0  0  0  0  0  0  0  0  0
    3.3466    0.1092    2.7852 C   0  0  0  0  0  0  0  0  0  0  0  0
    2.9150    1.4815    2.3395 C   0  0  0  0  0  0  0  0  0  0  0  0
    3.5620    2.1250    1.2709 C   0  0  0  0  0  0  0  0  0  0  0  0
    3.1369    3.3889    0.8493 C   0  0  0  0  0  0  0  0  0  0  0  0
    2.0638    4.0165    1.4878 C   0  0  0  0  0  0  0  0  0  0  0  0
    1.4136    3.3813    2.5492 C   0  0  0  0  0  0  0  0  0  0  0  0
    1.8364    2.1182    2.9750 C   0  0  0  0  0  0  0  0  0  0  0  0
   -0.6249   -0.7972   -0.4537 C   0  0  0  0  0  0  0  0  0  0  0  0
   -1.4269   -0.1988    0.3138 O   0  0  0  0  0  0  0  0  0  0  0  0
   -0.2033   -0.1885   -1.6862 N   0  0  0  0  0  0  0  0  0  0  0  0
   -0.4121    1.2267   -2.0209 C   0  0  2  0  0  0  0  0  0  0  0  0
    0.2201    2.1555   -0.9679 C   0  0  0  0  0  0  0  0  0  0  0  0
   -0.9299    2.8716   -0.2669 C   0  0  0  0  0  0  0  0  0  0  0  0
   -2.1236    2.5161   -1.0059 N   0  0  0  0  0  0  0  0  0  0  0  0
   -1.8997    1.5837   -2.0908 C   0  0  0  0  0  0  0  0  0  0  0  0
   -3.3909    3.0294   -0.6941 C   0  0  0  0  0  0  0  0  0  0  0  0
   -4.4366    3.4528   -0.4366 N   0  0  0  0  0  0  0  0  0  0  0  0
    0.6417   -2.5079   -0.8090 H   0  0  0  0  0  0  0  0  0  0  0  0
   -1.9044   -2.8467    0.8956 H   0  0  0  0  0  0  0  0  0  0  0  0
   -0.7691   -4.1490    0.4307 H   0  0  0  0  0  0  0  0  0  0  0  0
   -2.4208   -2.4568   -1.5770 H   0  0  0  0  0  0  0  0  0  0  0  0
   -2.8909   -5.3210   -0.5364 H   0  0  0  0  0  0  0  0  0  0  0  0
   -3.8364   -4.4744   -1.8236 H   0  0  0  0  0  0  0  0  0  0  0  0
   -3.8771   -3.8598   -0.1366 H   0  0  0  0  0  0  0  0  0  0  0  0
   -1.7970   -4.3094   -3.1913 H   0  0  0  0  0  0  0  0  0  0  0  0
   -0.6683   -4.9790   -1.9512 H   0  0  0  0  0  0  0  0  0  0  0  0
   -0.3935   -3.3386   -2.6655 H   0  0  0  0  0  0  0  0  0  0  0  0
    0.2300   -2.3838    2.1012 H   0  0  0  0  0  0  0  0  0  0  0  0
    4.2566   -0.2305    2.2436 H   0  0  0  0  0  0  0  0  0  0  0  0
    3.5970    0.1449    3.8663 H   0  0  0  0  0  0  0  0  0  0  0  0
    4.3894    1.6479    0.7607 H   0  0  0  0  0  0  0  0  0  0  0  0
    3.6354    3.8792    0.0232 H   0  0  0  0  0  0  0  0  0  0  0  0
    1.7318    4.9916    1.1558 H   0  0  0  0  0  0  0  0  0  0  0  0
    0.5785    3.8654    3.0386 H   0  0  0  0  0  0  0  0  0  0  0  0
    1.3208    1.6331    3.7946 H   0  0  0  0  0  0  0  0  0  0  0  0
    0.3509   -0.7641   -2.3594 H   0  0  0  0  0  0  0  0  0  0  0  0
    0.0562    1.4293   -3.0107 H   0  0  0  0  0  0  0  0  0  0  0  0
    0.8418    1.5969   -0.2346 H   0  0  0  0  0  0  0  0  0  0  0  0
    0.8715    2.9035   -1.4713 H   0  0  0  0  0  0  0  0  0  0  0  0
   -0.7786    3.9728   -0.2891 H   0  0  0  0  0  0  0  0  0  0  0  0
   -1.0227    2.5283    0.7863 H   0  0  0  0  0  0  0  0  0  0  0  0
   -2.5507    0.6900   -1.9723 H   0  0  0  0  0  0  0  0  0  0  0  0
   -2.1367    2.0778   -3.0582 H   0  0  0  0  0  0  0  0  0  0  0  0
  1  2  1  0
  2  3  1  0
  3  4  1  0
  3  5  1  0
  1  6  1  0
  6  7  1  0
  7  8  2  0
  7  9  1  0
  9 10  1  0
 10 11  1  0
 11 12  2  0
 12 13  1  0
 13 14  2  0
 14 15  1  0
 15 16  2  0
  1 17  1  0
 17 18  2  0
 17 19  1  0
 19 20  1  0
 20 21  1  0
 21 22  1  0
 22 23  1  0
 23 24  1  0
 23 25  1  0
 25 26  3  0
 16 11  1  0
 24 20  1  0
  1 27  1  6
  2 28  1  0
  2 29  1  0
  3 30  1  0
  4 31  1  0
  4 32  1  0
  4 33  1  0
  5 34  1  0
  5 35  1  0
  5 36  1  0
  6 37  1  0
 10 38  1  0
 10 39  1  0
 12 40  1  0
 13 41  1  0
 14 42  1  0
 15 43  1  0
 16 44  1  0
 19 45  1  0
 20 46  1  6
 21 47  1  0
 21 48  1  0
 22 49  1  0
 22 50  1  0
 24 51  1  0
 24 52  1  0
M  END
$$$$
