
     RDKit          3D

 30 32  0  0  0  0  0  0  0  0999 V2000
    6.0761    0.8998    0.0769 O   0  0  0  0  0  0  0  0  0  0  0  0
    4.7210    0.5819    0.0204 C   0  0  0  0  0  0  0  0  0  0  0  0
    4.1997   -0.0176   -1.1300 C   0  0  0  0  0  0  0  0  0  0  0  0
    2.8416   -0.3422   -1.2010 C   0  0  0  0  0  0  0  0  0  0  0  0
    1.9861   -0.0643   -0.1203 C   0  0  0  0  0  0  0  0  0  0  0  0
    2.5184    0.5326    1.0365 C   0  0  0  0  0  0  0  0  0  0  0  0
    3.8770    0.8554    1.1046 C   0  0  0  0  0  0  0  0  0  0  0  0
    0.5460   -0.4185   -0.1950 C   0  0  0  0  0  0  0  0  0  0  0  0
    0.1646   -1.6985   -0.6215 C   0  0  0  0  0  0  0  0  0  0  0  0
   -1.1153   -2.0408   -0.6900 O   0  0  0  0  0  0  0  0  0  0  0  0
   -2.1007   -1.2113   -0.3665 C   0  0  0  0  0  0  0  0  0  0  0  0
   -1.8193    0.1057    0.0713 C   0  0  0  0  0  0  0  0  0  0  0  0
   -2.8948    0.9641    0.4057 C   0  0  0  0  0  0  0  0  0  0  0  0
   -2.6633    2.2692    0.8422 O   0  0  0  0  0  0  0  0  0  0  0  0
   -4.2144    0.5002    0.2999 C   0  0  0  0  0  0  0  0  0  0  0  0
   -4.4792   -0.8038   -0.1335 C   0  0  0  0  0  0  0  0  0  0  0  0
   -5.7899   -1.2643   -0.2384 O   0  0  0  0  0  0  0  0  0  0  0  0
   -3.4231   -1.6539   -0.4648 C   0  0  0  0  0  0  0  0  0  0  0  0
   -0.4655    0.4997    0.1474 C   0  0  0  0  0  0  0  0  0  0  0  0
   -0.1552    1.6712    0.4990 O   0  0  0  0  0  0  0  0  0  0  0  0
    6.4842    1.3343    0.8964 H   0  0  0  0  0  0  0  0  0  0  0  0
    4.8476   -0.2313   -1.9706 H   0  0  0  0  0  0  0  0  0  0  0  0
    2.4556   -0.7987   -2.1042 H   0  0  0  0  0  0  0  0  0  0  0  0
    1.8866    0.7340    1.8926 H   0  0  0  0  0  0  0  0  0  0  0  0
    4.2733    1.3135    2.0019 H   0  0  0  0  0  0  0  0  0  0  0  0
    0.9147   -2.4301   -0.8936 H   0  0  0  0  0  0  0  0  0  0  0  0
   -3.4241    2.8932    1.0850 H   0  0  0  0  0  0  0  0  0  0  0  0
   -5.0371    1.1562    0.5559 H   0  0  0  0  0  0  0  0  0  0  0  0
   -6.5795   -0.6732   -0.0060 H   0  0  0  0  0  0  0  0  0  0  0  0
   -3.6309   -2.6626   -0.8004 H   0  0  0  0  0  0  0  0  0  0  0  0
  1  2  1  0
  2  3  2  0
  3  4  1  0
  4  5  2  0
  5  6  1  0
  6  7  2  0
  5  8  1  0
  8  9  2  0
  9 10  1  0
 10 11  1  0
 11 12  2  0
 12 13  1  0
 13 14  1  0
 13 15  2  0
 15 16  1  0
 16 17  1  0
 16 18  2  0
 12 19  1  0
 19 20  2  0
  7  2  1  0
 19  8  1  0
 18 11  1  0
  1 21  1  0
  3 22  1  0
  4 23  1  0
  6 24  1  0
  7 25  1  0
  9 26  1  0
 14 27  1  0
 15 28  1  0
 17 29  1  0
 18 30  1  0
M  END
$$$$
