
     RDKit          3D

 18 17  0  0  0  0  0  0  0  0999 V2000
   -2.5462    0.2486    0.3905 N   0  0  0  0  0  4  0  0  0  0  0  0
   -1.1201    0.5506    0.2706 C   0  0  0  0  0  0  0  0  0  0  0  0
   -0.4542   -0.3578   -0.7755 C   0  0  0  0  0  0  0  0  0  0  0  0
    1.0138    0.0151   -1.0357 C   0  0  0  0  0  0  0  0  0  0  0  0
    1.9317   -0.3354    0.1380 C   0  0  0  0  0  0  0  0  0  0  0  0
    3.2625   -0.0960   -0.2259 O   0  0  0  0  0  0  0  0  0  0  0  0
   -3.0283    0.4204   -0.5217 H   0  0  0  0  0  0  0  0  0  0  0  0
   -2.9678    0.8707    1.1175 H   0  0  0  0  0  0  0  0  0  0  0  0
   -2.6792   -0.7480    0.6792 H   0  0  0  0  0  0  0  0  0  0  0  0
   -0.9955    1.6160   -0.0251 H   0  0  0  0  0  0  0  0  0  0  0  0
   -0.6366    0.4047    1.2607 H   0  0  0  0  0  0  0  0  0  0  0  0
   -0.5230   -1.4195   -0.4523 H   0  0  0  0  0  0  0  0  0  0  0  0
   -1.0078   -0.2622   -1.7350 H   0  0  0  0  0  0  0  0  0  0  0  0
    1.0960    1.1001   -1.2650 H   0  0  0  0  0  0  0  0  0  0  0  0
    1.3600   -0.5445   -1.9321 H   0  0  0  0  0  0  0  0  0  0  0  0
    1.8067   -1.4092    0.4035 H   0  0  0  0  0  0  0  0  0  0  0  0
    1.6751    0.2909    1.0201 H   0  0  0  0  0  0  0  0  0  0  0  0
    3.8127   -0.3445    0.5620 H   0  0  0  0  0  0  0  0  0  0  0  0
  1  2  1  0
  2  3  1  0
  3  4  1  0
  4  5  1  0
  5  6  1  0
  1  7  1  0
  1  8  1  0
  1  9  1  0
  2 10  1  0
  2 11  1  0
  3 12  1  0
  3 13  1  0
  4 14  1  0
  4 15  1  0
  5 16  1  0
  5 17  1  0
  6 18  1  0
M  CHG  1   1   1
M  END
$$$$
