
     RDKit          3D

 42 45  0  0  0  0  0  0  0  0999 V2000
    2.7626    4.4837   -0.6753 O   0  0  0  0  0  0  0  0  0  0  0  0
    2.5906    3.6091   -1.7559 C   0  0  0  0  0  0  0  0  0  0  0  0
    1.3706    2.7679   -1.5469 C   0  0  0  0  0  0  0  0  0  0  0  0
    1.2606    1.5898   -0.8506 C   0  0  0  0  0  0  0  0  0  0  0  0
    2.2425    0.8812   -0.2462 N   0  0  0  0  0  0  0  0  0  0  0  0
    1.9282   -0.2710    0.4165 C   0  0  0  0  0  0  0  0  0  0  0  0
    0.5809   -0.7092    0.4485 C   0  0  0  0  0  0  0  0  0  0  0  0
   -0.4150    0.0565   -0.1866 C   0  0  0  0  0  0  0  0  0  0  0  0
   -1.7862   -0.3898   -0.1496 N   0  0  0  0  0  0  0  0  0  0  0  0
   -2.8960    0.2878   -0.8213 C   0  0  0  0  0  0  0  0  0  0  0  0
   -4.1796   -0.4734   -0.6239 C   0  0  0  0  0  0  0  0  0  0  0  0
   -4.5506   -1.4918   -1.5151 C   0  0  0  0  0  0  0  0  0  0  0  0
   -5.6931   -2.1999   -1.3072 N   0  0  0  0  0  0  0  0  0  0  0  0
   -6.5000   -1.9573   -0.2402 C   0  0  0  0  0  0  0  0  0  0  0  0
   -6.1615   -0.9646    0.6813 C   0  0  0  0  0  0  0  0  0  0  0  0
   -4.9930   -0.2245    0.4909 C   0  0  0  0  0  0  0  0  0  0  0  0
   -0.0195    1.2001   -0.8182 N   0  0  0  0  0  0  0  0  0  0  0  0
   -0.7666    2.0877   -1.4565 N   0  0  0  0  0  0  0  0  0  0  0  0
    0.0611    3.0615   -1.9065 C   0  0  0  0  0  0  0  0  0  0  0  0
    3.0130   -1.0458    1.0717 C   0  0  0  0  0  0  0  0  0  0  0  0
    4.3251   -0.9788    0.5652 C   0  0  0  0  0  0  0  0  0  0  0  0
    5.3592   -1.6960    1.1744 C   0  0  0  0  0  0  0  0  0  0  0  0
    5.0995   -2.4811    2.2993 C   0  0  0  0  0  0  0  0  0  0  0  0
    3.8057   -2.5471    2.8202 C   0  0  0  0  0  0  0  0  0  0  0  0
    2.7670   -1.8329    2.2148 C   0  0  0  0  0  0  0  0  0  0  0  0
    3.1272    3.9423    0.0732 H   0  0  0  0  0  0  0  0  0  0  0  0
    3.4870    2.9605   -1.8820 H   0  0  0  0  0  0  0  0  0  0  0  0
    2.4705    4.2054   -2.6847 H   0  0  0  0  0  0  0  0  0  0  0  0
    0.3095   -1.6370    0.9345 H   0  0  0  0  0  0  0  0  0  0  0  0
   -1.9922   -1.2664    0.3835 H   0  0  0  0  0  0  0  0  0  0  0  0
   -2.6797    0.3672   -1.9087 H   0  0  0  0  0  0  0  0  0  0  0  0
   -3.0095    1.3135   -0.4088 H   0  0  0  0  0  0  0  0  0  0  0  0
   -3.9320   -1.7232   -2.3727 H   0  0  0  0  0  0  0  0  0  0  0  0
   -7.4019   -2.5391   -0.1044 H   0  0  0  0  0  0  0  0  0  0  0  0
   -6.7964   -0.7734    1.5367 H   0  0  0  0  0  0  0  0  0  0  0  0
   -4.7224    0.5390    1.2098 H   0  0  0  0  0  0  0  0  0  0  0  0
   -0.2698    3.9357   -2.4510 H   0  0  0  0  0  0  0  0  0  0  0  0
    4.5497   -0.3814   -0.3098 H   0  0  0  0  0  0  0  0  0  0  0  0
    6.3631   -1.6429    0.7733 H   0  0  0  0  0  0  0  0  0  0  0  0
    5.9016   -3.0344    2.7703 H   0  0  0  0  0  0  0  0  0  0  0  0
    3.6081   -3.1474    3.6989 H   0  0  0  0  0  0  0  0  0  0  0  0
    1.7819   -1.8805    2.6591 H   0  0  0  0  0  0  0  0  0  0  0  0
  1  2  1  0
  2  3  1  0
  3  4  2  0
  4  5  1  0
  5  6  2  0
  6  7  1  0
  7  8  2  0
  8  9  1  0
  9 10  1  0
 10 11  1  0
 11 12  2  0
 12 13  1  0
 13 14  2  0
 14 15  1  0
 15 16  2  0
  8 17  1  0
 17 18  1  0
 18 19  2  0
  6 20  1  0
 20 21  2  0
 21 22  1  0
 22 23  2  0
 23 24  1  0
 24 25  2  0
 19  3  1  0
 25 20  1  0
 17  4  1  0
 16 11  1  0
  1 26  1  0
  2 27  1  0
  2 28  1  0
  7 29  1  0
  9 30  1  0
 10 31  1  0
 10 32  1  0
 12 33  1  0
 14 34  1  0
 15 35  1  0
 16 36  1  0
 19 37  1  0
 21 38  1  0
 22 39  1  0
 23 40  1  0
 24 41  1  0
 25 42  1  0
M  END
$$$$
