
     RDKit          3D

 26 25  0  0  0  0  0  0  0  0999 V2000
   -2.3834   -1.0269    0.6870 C   0  0  0  0  0  0  0  0  0  0  0  0
   -1.3631   -0.0213    0.2986 N   0  0  0  0  0  4  0  0  0  0  0  0
   -1.6825    0.4574   -1.0671 C   0  0  0  0  0  0  0  0  0  0  0  0
   -1.4467    1.1106    1.2545 C   0  0  0  0  0  0  0  0  0  0  0  0
   -0.0212   -0.6837    0.3577 C   0  0  0  0  0  0  0  0  0  0  0  0
    1.1859    0.1737   -0.1291 C   0  0  2  0  0  0  0  0  0  0  0  0
    1.1944    0.2899   -1.5318 O   0  0  0  0  0  0  0  0  0  0  0  0
    2.5149   -0.4378    0.3584 C   0  0  0  0  0  0  0  0  0  0  0  0
    3.6832    0.3971   -0.0673 C   0  0  0  0  0  0  0  0  0  0  0  0
    4.0489    1.5115    0.6770 O   0  0  0  0  0  1  0  0  0  0  0  0
    4.3128    0.1166   -1.1211 O   0  0  0  0  0  0  0  0  0  0  0  0
   -3.4083   -0.5915    0.6791 H   0  0  0  0  0  0  0  0  0  0  0  0
   -2.3823   -1.8914   -0.0148 H   0  0  0  0  0  0  0  0  0  0  0  0
   -2.1916   -1.4170    1.7121 H   0  0  0  0  0  0  0  0  0  0  0  0
   -2.7408    0.7966   -1.1357 H   0  0  0  0  0  0  0  0  0  0  0  0
   -1.0543    1.3291   -1.3504 H   0  0  0  0  0  0  0  0  0  0  0  0
   -1.5316   -0.3502   -1.8178 H   0  0  0  0  0  0  0  0  0  0  0  0
   -0.8207    1.9699    0.9360 H   0  0  0  0  0  0  0  0  0  0  0  0
   -2.4890    1.4951    1.3285 H   0  0  0  0  0  0  0  0  0  0  0  0
   -1.1249    0.8003    2.2735 H   0  0  0  0  0  0  0  0  0  0  0  0
    0.1781   -1.0020    1.4073 H   0  0  0  0  0  0  0  0  0  0  0  0
   -0.0330   -1.6252   -0.2388 H   0  0  0  0  0  0  0  0  0  0  0  0
    1.1239    1.1922    0.3017 H   0  0  0  0  0  0  0  0  0  0  0  0
    1.2873   -0.6232   -1.9109 H   0  0  0  0  0  0  0  0  0  0  0  0
    2.5150   -0.4991    1.4683 H   0  0  0  0  0  0  0  0  0  0  0  0
    2.6291   -1.4708   -0.0379 H   0  0  0  0  0  0  0  0  0  0  0  0
  1  2  1  0
  2  3  1  0
  2  4  1  0
  2  5  1  0
  5  6  1  0
  6  7  1  0
  6  8  1  0
  8  9  1  0
  9 10  1  0
  9 11  2  0
  1 12  1  0
  1 13  1  0
  1 14  1  0
  3 15  1  0
  3 16  1  0
  3 17  1  0
  4 18  1  0
  4 19  1  0
  4 20  1  0
  5 21  1  0
  5 22  1  0
  6 23  1  1
  7 24  1  0
  8 25  1  0
  8 26  1  0
M  CHG  2   2   1  10  -1
M  END
$$$$
