
     RDKit          3D

 46 48  0  0  0  0  0  0  0  0999 V2000
   -4.0275    0.2310    1.0600 C   0  0  2  0  0  0  0  0  0  0  0  0
   -5.3918   -0.3544    1.4406 C   0  0  0  0  0  0  0  0  0  0  0  0
   -5.5364   -1.6421    0.6355 C   0  0  0  0  0  0  0  0  0  0  0  0
   -4.1262   -2.0409    0.2270 C   0  0  0  0  0  0  0  0  0  0  0  0
   -3.3181   -0.8420    0.3725 N   0  0  0  0  0  0  0  0  0  0  0  0
   -2.0306   -0.7117   -0.2628 C   0  0  0  0  0  0  0  0  0  0  0  0
   -1.4488   -1.7449   -0.6946 O   0  0  0  0  0  0  0  0  0  0  0  0
   -1.4065    0.6429   -0.5212 C   0  0  2  0  0  0  0  0  0  0  0  0
   -1.8437    1.1946   -1.8810 C   0  0  0  0  0  0  0  0  0  0  0  0
   -0.5855    1.7795   -2.5189 C   0  0  0  0  0  0  0  0  0  0  0  0
    0.5905    1.1186   -1.8121 C   0  0  0  0  0  0  0  0  0  0  0  0
    0.0465    0.5572   -0.5891 N   0  0  0  0  0  0  0  0  0  0  0  0
    0.8784    0.1309    0.5004 C   0  0  0  0  0  0  0  0  0  0  0  0
    0.3576   -0.2079    1.5986 O   0  0  0  0  0  0  0  0  0  0  0  0
    2.2666    0.0952    0.3373 O   0  0  0  0  0  0  0  0  0  0  0  0
    3.1526   -0.3150    1.3726 C   0  0  0  0  0  0  0  0  0  0  0  0
    4.5650   -0.2368    0.8724 C   0  0  0  0  0  0  0  0  0  0  0  0
    5.2921    0.9593    0.9894 C   0  0  0  0  0  0  0  0  0  0  0  0
    6.5947    1.0429    0.4874 C   0  0  0  0  0  0  0  0  0  0  0  0
    7.1742   -0.0609   -0.1446 C   0  0  0  0  0  0  0  0  0  0  0  0
    6.4502   -1.2487   -0.2800 C   0  0  0  0  0  0  0  0  0  0  0  0
    5.1473   -1.3364    0.2206 C   0  0  0  0  0  0  0  0  0  0  0  0
   -3.2735    0.6784    2.2845 C   0  0  0  0  0  0  0  0  0  0  0  0
   -3.6480    1.6554    2.9129 O   0  0  0  0  0  0  0  0  0  0  0  0
   -4.1639    1.0872    0.3630 H   0  0  0  0  0  0  0  0  0  0  0  0
   -6.2122    0.3575    1.2031 H   0  0  0  0  0  0  0  0  0  0  0  0
   -5.4420   -0.6043    2.5248 H   0  0  0  0  0  0  0  0  0  0  0  0
   -6.1452   -1.4427   -0.2740 H   0  0  0  0  0  0  0  0  0  0  0  0
   -6.0256   -2.4424    1.2323 H   0  0  0  0  0  0  0  0  0  0  0  0
   -3.7323   -2.8370    0.8950 H   0  0  0  0  0  0  0  0  0  0  0  0
   -4.1183   -2.3941   -0.8276 H   0  0  0  0  0  0  0  0  0  0  0  0
   -1.6728    1.3684    0.2744 H   0  0  0  0  0  0  0  0  0  0  0  0
   -2.2367    0.3876   -2.5401 H   0  0  0  0  0  0  0  0  0  0  0  0
   -2.6305    1.9713   -1.7636 H   0  0  0  0  0  0  0  0  0  0  0  0
   -0.5575    2.8772   -2.3411 H   0  0  0  0  0  0  0  0  0  0  0  0
   -0.5586    1.5875   -3.6135 H   0  0  0  0  0  0  0  0  0  0  0  0
    1.0182    0.3042   -2.4358 H   0  0  0  0  0  0  0  0  0  0  0  0
    1.3758    1.8716   -1.5822 H   0  0  0  0  0  0  0  0  0  0  0  0
    2.9127   -1.3563    1.6809 H   0  0  0  0  0  0  0  0  0  0  0  0
    3.0240    0.3440    2.2592 H   0  0  0  0  0  0  0  0  0  0  0  0
    4.8508    1.8251    1.4677 H   0  0  0  0  0  0  0  0  0  0  0  0
    7.1534    1.9648    0.5847 H   0  0  0  0  0  0  0  0  0  0  0  0
    8.1819    0.0060   -0.5339 H   0  0  0  0  0  0  0  0  0  0  0  0
    6.8970   -2.1003   -0.7767 H   0  0  0  0  0  0  0  0  0  0  0  0
    4.5932   -2.2592    0.0999 H   0  0  0  0  0  0  0  0  0  0  0  0
   -2.3907    0.1398    2.6145 H   0  0  0  0  0  0  0  0  0  0  0  0
  1  2  1  0
  2  3  1  0
  3  4  1  0
  4  5  1  0
  5  6  1  0
  6  7  2  0
  6  8  1  0
  8  9  1  0
  9 10  1  0
 10 11  1  0
 11 12  1  0
 12 13  1  0
 13 14  2  0
 13 15  1  0
 15 16  1  0
 16 17  1  0
 17 18  2  0
 18 19  1  0
 19 20  2  0
 20 21  1  0
 21 22  2  0
  1 23  1  0
 23 24  2  0
  5  1  1  0
 12  8  1  0
 22 17  1  0
  1 25  1  6
  2 26  1  0
  2 27  1  0
  3 28  1  0
  3 29  1  0
  4 30  1  0
  4 31  1  0
  8 32  1  1
  9 33  1  0
  9 34  1  0
 10 35  1  0
 10 36  1  0
 11 37  1  0
 11 38  1  0
 16 39  1  0
 16 40  1  0
 18 41  1  0
 19 42  1  0
 20 43  1  0
 21 44  1  0
 22 45  1  0
 23 46  1  0
M  END
$$$$
