
     RDKit          3D

 44 46  0  0  0  0  0  0  0  0999 V2000
   -7.2030   -0.6182   -0.2707 C   0  0  0  0  0  0  0  0  0  0  0  0
   -5.7492   -0.8867    0.1349 C   0  0  0  0  0  0  0  0  0  0  0  0
   -5.6079   -0.8551    1.6625 C   0  0  0  0  0  0  0  0  0  0  0  0
   -4.8105    0.1326   -0.5276 C   0  0  0  0  0  0  0  0  0  0  0  0
   -3.4534   -0.2001   -0.2418 O   0  0  0  0  0  0  0  0  0  0  0  0
   -2.3397    0.5283   -0.6888 C   0  0  0  0  0  0  0  0  0  0  0  0
   -2.4778    1.6757   -1.4916 C   0  0  0  0  0  0  0  0  0  0  0  0
   -1.3516    2.3835   -1.9083 C   0  0  0  0  0  0  0  0  0  0  0  0
   -0.0769    1.9526   -1.5435 C   0  0  0  0  0  0  0  0  0  0  0  0
    0.0901    0.7991   -0.7604 C   0  0  0  0  0  0  0  0  0  0  0  0
    1.4621    0.3658   -0.4072 C   0  0  0  0  0  0  0  0  0  0  0  0
    2.4894    1.2444   -0.2473 N   0  0  0  0  0  0  0  0  0  0  0  0
    3.5334    0.4417    0.0237 C   0  0  0  0  0  0  0  0  0  0  0  0
    3.1446   -0.8604    0.0159 C   0  0  0  0  0  0  0  0  0  0  0  0
    1.8370   -0.9320   -0.2600 N   0  0  0  0  0  0  0  0  0  0  0  0
    4.0377   -1.9026    0.2389 C   0  0  0  0  0  0  0  0  0  0  0  0
    5.3839   -1.5737    0.4945 C   0  0  0  0  0  0  0  0  0  0  0  0
    6.5305   -2.8946    0.6949 Cl  0  0  0  0  0  0  0  0  0  0  0  0
    5.7967   -0.2061    0.5229 C   0  0  0  0  0  0  0  0  0  0  0  0
    4.8509    0.8140    0.2685 C   0  0  0  0  0  0  0  0  0  0  0  0
    7.1992    0.1793    0.7983 C   0  0  0  0  0  0  0  0  0  0  0  0
    7.8714    1.0898   -0.0735 N   0  0  0  0  0  0  0  0  0  0  0  0
    7.8124   -0.2559    1.8541 N   0  0  0  0  0  0  0  0  0  0  0  0
   -1.0514    0.0960   -0.3143 C   0  0  0  0  0  0  0  0  0  0  0  0
   -0.9035   -1.0119    0.5228 O   0  0  0  0  0  0  0  0  0  0  0  0
   -7.3114   -0.6827   -1.3745 H   0  0  0  0  0  0  0  0  0  0  0  0
   -7.5233    0.3924    0.0630 H   0  0  0  0  0  0  0  0  0  0  0  0
   -7.8747   -1.3765    0.1854 H   0  0  0  0  0  0  0  0  0  0  0  0
   -5.4731   -1.9038   -0.2216 H   0  0  0  0  0  0  0  0  0  0  0  0
   -4.5673   -1.1047    1.9600 H   0  0  0  0  0  0  0  0  0  0  0  0
   -5.8635    0.1509    2.0597 H   0  0  0  0  0  0  0  0  0  0  0  0
   -6.2843   -1.6052    2.1250 H   0  0  0  0  0  0  0  0  0  0  0  0
   -5.0344    1.1543   -0.1483 H   0  0  0  0  0  0  0  0  0  0  0  0
   -4.9640    0.1128   -1.6289 H   0  0  0  0  0  0  0  0  0  0  0  0
   -3.4523    2.0331   -1.7947 H   0  0  0  0  0  0  0  0  0  0  0  0
   -1.4667    3.2684   -2.5210 H   0  0  0  0  0  0  0  0  0  0  0  0
    0.7830    2.5132   -1.8894 H   0  0  0  0  0  0  0  0  0  0  0  0
    1.2649   -1.7966   -0.3823 H   0  0  0  0  0  0  0  0  0  0  0  0
    3.7074   -2.9330    0.2040 H   0  0  0  0  0  0  0  0  0  0  0  0
    5.1318    1.8602    0.2743 H   0  0  0  0  0  0  0  0  0  0  0  0
    7.4056    1.4446   -0.9382 H   0  0  0  0  0  0  0  0  0  0  0  0
    8.8489    1.3952    0.1315 H   0  0  0  0  0  0  0  0  0  0  0  0
    7.3528   -0.8902    2.5451 H   0  0  0  0  0  0  0  0  0  0  0  0
   -1.6942   -1.5382    0.8746 H   0  0  0  0  0  0  0  0  0  0  0  0
  1  2  1  0
  2  3  1  0
  2  4  1  0
  4  5  1  0
  5  6  1  0
  6  7  2  0
  7  8  1  0
  8  9  2  0
  9 10  1  0
 10 11  1  0
 11 12  2  0
 12 13  1  0
 13 14  2  0
 14 15  1  0
 14 16  1  0
 16 17  2  0
 17 18  1  0
 17 19  1  0
 19 20  2  0
 19 21  1  0
 21 22  1  0
 21 23  2  3
 10 24  2  0
 24 25  1  0
 24  6  1  0
 15 11  1  0
 20 13  1  0
  1 26  1  0
  1 27  1  0
  1 28  1  0
  2 29  1  0
  3 30  1  0
  3 31  1  0
  3 32  1  0
  4 33  1  0
  4 34  1  0
  7 35  1  0
  8 36  1  0
  9 37  1  0
 15 38  1  0
 16 39  1  0
 20 40  1  0
 22 41  1  0
 22 42  1  0
 23 43  1  0
 25 44  1  0
M  END
$$$$
