
     RDKit          3D

129134  0  0  0  0  0  0  0  0999 V2000
   -1.6323    2.4644   -3.1929 C   0  0  1  0  0  0  0  0  0  0  0  0
   -1.6556    2.3676   -4.7233 C   0  0  0  0  0  0  0  0  0  0  0  0
   -2.9331    2.8889   -2.7819 O   0  0  0  0  0  0  0  0  0  0  0  0
   -3.4927    2.1790   -1.6908 C   0  0  2  0  0  0  0  0  0  0  0  0
   -4.5952    2.9309   -1.2103 O   0  0  0  0  0  0  0  0  0  0  0  0
   -5.6145    2.1114   -0.6531 C   0  0  2  0  0  0  0  0  0  0  0  0
   -6.8272    2.0351   -1.6359 C   0  0  1  0  0  0  0  0  0  0  0  0
   -6.6700    0.9120   -2.6720 C   0  0  0  0  0  0  0  0  0  0  0  0
   -7.8075    0.8581   -3.4881 O   0  0  0  0  0  0  0  0  0  0  0  0
   -8.0937    1.9351   -0.9876 O   0  0  0  0  0  0  0  0  0  0  0  0
   -8.0254    1.1512    0.1909 C   0  0  2  0  0  0  0  0  0  0  0  0
   -9.3358    0.8702    0.6483 O   0  0  0  0  0  0  0  0  0  0  0  0
   -9.9540   -0.1240   -0.1508 C   0  0  0  0  0  0  0  0  0  0  0  0
   -9.8132   -1.5052    0.5076 C   0  0  1  0  0  0  0  0  0  0  0  0
  -10.3223   -1.4226    1.8326 O   0  0  0  0  0  0  0  0  0  0  0  0
  -10.3791   -2.7048    2.4234 C   0  0  1  0  0  0  0  0  0  0  0  0
  -10.5737   -2.5507    3.8039 O   0  0  0  0  0  0  0  0  0  0  0  0
  -11.5587   -3.4993    1.8115 C   0  0  2  0  0  0  0  0  0  0  0  0
  -11.3473   -4.8837    1.9416 O   0  0  0  0  0  0  0  0  0  0  0  0
  -11.8128   -3.1045    0.3301 C   0  0  1  0  0  0  0  0  0  0  0  0
  -12.7792   -2.0853    0.2664 O   0  0  0  0  0  0  0  0  0  0  0  0
  -10.5252   -2.6043   -0.3525 C   0  0  2  0  0  0  0  0  0  0  0  0
   -9.6586   -3.6919   -0.5535 O   0  0  0  0  0  0  0  0  0  0  0  0
   -7.2543    1.9259    1.2825 C   0  0  2  0  0  0  0  0  0  0  0  0
   -8.1272    2.7962    1.9580 O   0  0  0  0  0  0  0  0  0  0  0  0
   -6.0851    2.7394    0.6685 C   0  0  1  0  0  0  0  0  0  0  0  0
   -5.0113    2.7951    1.5714 O   0  0  0  0  0  0  0  0  0  0  0  0
   -2.4614    1.9943   -0.5598 C   0  0  2  0  0  0  0  0  0  0  0  0
   -1.8929    3.2338   -0.2176 O   0  0  0  0  0  0  0  0  0  0  0  0
   -1.3533    1.0317   -1.0246 C   0  0  1  0  0  0  0  0  0  0  0  0
   -1.7047   -0.2913   -0.6980 O   0  0  0  0  0  0  0  0  0  0  0  0
   -1.1238    1.1212   -2.5574 C   0  0  2  0  0  0  0  0  0  0  0  0
    0.2719    0.7418   -2.9041 N   0  0  0  0  0  0  0  0  0  0  0  0
    1.3069    1.8079   -2.9456 C   0  0  1  0  0  0  0  0  0  0  0  0
    1.4638    2.4918   -1.6084 C   0  0  0  0  0  0  0  0  0  0  0  0
    2.3460    2.0868   -0.6690 C   0  0  0  0  0  0  0  0  0  0  0  0
    2.3968    2.8371    0.6389 C   0  0  0  0  0  0  0  0  0  0  0  0
    1.2251    2.5922    1.3655 O   0  0  0  0  0  0  0  0  0  0  0  0
    3.3818    1.0001   -0.9333 C   0  0  1  0  0  0  0  0  0  0  0  0
    3.3170    0.0587    0.1280 O   0  0  0  0  0  0  0  0  0  0  0  0
    4.6064   -0.3288    0.5694 C   0  0  1  0  0  0  0  0  0  0  0  0
    5.1589    0.6958    1.3774 O   0  0  0  0  0  0  0  0  0  0  0  0
    6.5415    0.4790    1.6552 C   0  0  2  0  0  0  0  0  0  0  0  0
    7.4147    1.2071    0.6199 C   0  0  0  0  0  0  0  0  0  0  0  0
    7.0820    2.5688    0.5710 O   0  0  0  0  0  0  0  0  0  0  0  0
    6.9356   -1.0249    1.8109 C   0  0  1  0  0  0  0  0  0  0  0  0
    7.9933   -1.1469    2.7533 O   0  0  0  0  0  0  0  0  0  0  0  0
    9.2385   -1.4488    2.1423 C   0  0  1  0  0  0  0  0  0  0  0  0
   10.2644   -0.8733    2.9303 O   0  0  0  0  0  0  0  0  0  0  0  0
   11.5352   -0.9124    2.2824 C   0  0  2  0  0  0  0  0  0  0  0  0
   11.7769    0.3812    1.4918 C   0  0  0  0  0  0  0  0  0  0  0  0
   11.6293    1.4876    2.3380 O   0  0  0  0  0  0  0  0  0  0  0  0
   11.7560   -2.1776    1.3973 C   0  0  1  0  0  0  0  0  0  0  0  0
   13.1234   -2.4963    1.3057 O   0  0  0  0  0  0  0  0  0  0  0  0
   10.9391   -3.3569    1.9596 C   0  0  2  0  0  0  0  0  0  0  0  0
   11.0823   -4.4850    1.1346 O   0  0  0  0  0  0  0  0  0  0  0  0
    9.4387   -2.9833    2.0623 C   0  0  1  0  0  0  0  0  0  0  0  0
    8.8808   -3.5973    3.1966 O   0  0  0  0  0  0  0  0  0  0  0  0
    5.7120   -1.8026    2.3322 C   0  0  2  0  0  0  0  0  0  0  0  0
    6.0120   -3.1637    2.5162 O   0  0  0  0  0  0  0  0  0  0  0  0
    4.4908   -1.6315    1.3902 C   0  0  1  0  0  0  0  0  0  0  0  0
    3.3091   -1.6157    2.1507 O   0  0  0  0  0  0  0  0  0  0  0  0
    3.1765    0.2576   -2.2778 C   0  0  2  0  0  0  0  0  0  0  0  0
    4.3961   -0.3126   -2.6808 O   0  0  0  0  0  0  0  0  0  0  0  0
    2.6718    1.2188   -3.3675 C   0  0  1  0  0  0  0  0  0  0  0  0
    2.5657    0.5395   -4.5929 O   0  0  0  0  0  0  0  0  0  0  0  0
   -0.9432    3.2856   -2.9171 H   0  0  0  0  0  0  0  0  0  0  0  0
   -1.9585    3.3451   -5.1552 H   0  0  0  0  0  0  0  0  0  0  0  0
   -0.6624    2.1041   -5.1380 H   0  0  0  0  0  0  0  0  0  0  0  0
   -2.3901    1.5991   -5.0458 H   0  0  0  0  0  0  0  0  0  0  0  0
   -3.8160    1.1810   -2.0708 H   0  0  0  0  0  0  0  0  0  0  0  0
   -5.2616    1.0803   -0.4031 H   0  0  0  0  0  0  0  0  0  0  0  0
   -6.8494    2.9916   -2.2039 H   0  0  0  0  0  0  0  0  0  0  0  0
   -5.7794    1.1142   -3.3061 H   0  0  0  0  0  0  0  0  0  0  0  0
   -6.5310   -0.0661   -2.1603 H   0  0  0  0  0  0  0  0  0  0  0  0
   -7.6587    0.1070   -4.1194 H   0  0  0  0  0  0  0  0  0  0  0  0
   -7.4770    0.1953    0.0032 H   0  0  0  0  0  0  0  0  0  0  0  0
   -9.5663   -0.1522   -1.1974 H   0  0  0  0  0  0  0  0  0  0  0  0
  -11.0340    0.1255   -0.2248 H   0  0  0  0  0  0  0  0  0  0  0  0
   -8.7231   -1.7284    0.5588 H   0  0  0  0  0  0  0  0  0  0  0  0
   -9.4126   -3.2451    2.2620 H   0  0  0  0  0  0  0  0  0  0  0  0
  -10.4099   -3.4387    4.2173 H   0  0  0  0  0  0  0  0  0  0  0  0
  -12.4776   -3.2585    2.3913 H   0  0  0  0  0  0  0  0  0  0  0  0
  -10.5485   -5.1210    1.4032 H   0  0  0  0  0  0  0  0  0  0  0  0
  -12.1861   -3.9913   -0.2359 H   0  0  0  0  0  0  0  0  0  0  0  0
  -13.6634   -2.5167    0.4013 H   0  0  0  0  0  0  0  0  0  0  0  0
  -10.8159   -2.2016   -1.3525 H   0  0  0  0  0  0  0  0  0  0  0  0
   -8.9840   -3.4011   -1.2218 H   0  0  0  0  0  0  0  0  0  0  0  0
   -6.8523    1.1717    2.0005 H   0  0  0  0  0  0  0  0  0  0  0  0
   -7.6898    3.0313    2.8177 H   0  0  0  0  0  0  0  0  0  0  0  0
   -6.4338    3.7759    0.4404 H   0  0  0  0  0  0  0  0  0  0  0  0
   -5.2563    3.4583    2.2682 H   0  0  0  0  0  0  0  0  0  0  0  0
   -2.9576    1.5579    0.3379 H   0  0  0  0  0  0  0  0  0  0  0  0
   -2.5590    3.7134    0.3407 H   0  0  0  0  0  0  0  0  0  0  0  0
   -0.4239    1.2838   -0.4755 H   0  0  0  0  0  0  0  0  0  0  0  0
   -1.5440   -0.4061    0.2756 H   0  0  0  0  0  0  0  0  0  0  0  0
   -1.7845    0.3370   -2.9991 H   0  0  0  0  0  0  0  0  0  0  0  0
    0.2422    0.2729   -3.8395 H   0  0  0  0  0  0  0  0  0  0  0  0
    1.0463    2.5764   -3.7014 H   0  0  0  0  0  0  0  0  0  0  0  0
    0.8003    3.3219   -1.3837 H   0  0  0  0  0  0  0  0  0  0  0  0
    2.4993    3.9272    0.4370 H   0  0  0  0  0  0  0  0  0  0  0  0
    3.2768    2.5192    1.2383 H   0  0  0  0  0  0  0  0  0  0  0  0
    1.3001    3.1267    2.1982 H   0  0  0  0  0  0  0  0  0  0  0  0
    4.3603    1.5356   -0.9811 H   0  0  0  0  0  0  0  0  0  0  0  0
    5.2643   -0.5397   -0.3080 H   0  0  0  0  0  0  0  0  0  0  0  0
    6.7366    0.9685    2.6351 H   0  0  0  0  0  0  0  0  0  0  0  0
    7.3095    0.7406   -0.3861 H   0  0  0  0  0  0  0  0  0  0  0  0
    8.4802    1.1321    0.9178 H   0  0  0  0  0  0  0  0  0  0  0  0
    6.3039    2.6537   -0.0386 H   0  0  0  0  0  0  0  0  0  0  0  0
    7.1828   -1.4562    0.8097 H   0  0  0  0  0  0  0  0  0  0  0  0
    9.2968   -1.0224    1.1118 H   0  0  0  0  0  0  0  0  0  0  0  0
   12.2927   -0.9360    3.0965 H   0  0  0  0  0  0  0  0  0  0  0  0
   12.8090    0.3694    1.0747 H   0  0  0  0  0  0  0  0  0  0  0  0
   11.0565    0.4575    0.6477 H   0  0  0  0  0  0  0  0  0  0  0  0
   11.7857    2.2888    1.7737 H   0  0  0  0  0  0  0  0  0  0  0  0
   11.3909   -1.9769    0.3650 H   0  0  0  0  0  0  0  0  0  0  0  0
   13.4358   -2.7556    2.2118 H   0  0  0  0  0  0  0  0  0  0  0  0
   11.3174   -3.5883    2.9850 H   0  0  0  0  0  0  0  0  0  0  0  0
   11.9514   -4.9052    1.3666 H   0  0  0  0  0  0  0  0  0  0  0  0
    8.9018   -3.3353    1.1497 H   0  0  0  0  0  0  0  0  0  0  0  0
    8.7771   -4.5603    2.9778 H   0  0  0  0  0  0  0  0  0  0  0  0
    5.4526   -1.3805    3.3295 H   0  0  0  0  0  0  0  0  0  0  0  0
    6.2981   -3.5303    1.6389 H   0  0  0  0  0  0  0  0  0  0  0  0
    4.4459   -2.4743    0.6605 H   0  0  0  0  0  0  0  0  0  0  0  0
    3.1485   -2.5497    2.4471 H   0  0  0  0  0  0  0  0  0  0  0  0
    2.4193   -0.5484   -2.1224 H   0  0  0  0  0  0  0  0  0  0  0  0
    4.1784   -1.0891   -3.2600 H   0  0  0  0  0  0  0  0  0  0  0  0
    3.4127    2.0474   -3.4750 H   0  0  0  0  0  0  0  0  0  0  0  0
    2.4574    1.2329   -5.2952 H   0  0  0  0  0  0  0  0  0  0  0  0
  1  2  1  0
  1  3  1  0
  3  4  1  0
  4  5  1  0
  5  6  1  0
  6  7  1  0
  7  8  1  0
  8  9  1  0
  7 10  1  0
 10 11  1  0
 11 12  1  0
 12 13  1  0
 13 14  1  0
 14 15  1  0
 15 16  1  0
 16 17  1  0
 16 18  1  0
 18 19  1  0
 18 20  1  0
 20 21  1  0
 20 22  1  0
 22 23  1  0
 11 24  1  0
 24 25  1  0
 24 26  1  0
 26 27  1  0
  4 28  1  0
 28 29  1  0
 28 30  1  0
 30 31  1  0
 30 32  1  0
 32 33  1  0
 33 34  1  0
 34 35  1  0
 35 36  2  0
 36 37  1  0
 37 38  1  0
 36 39  1  0
 39 40  1  0
 40 41  1  0
 41 42  1  0
 42 43  1  0
 43 44  1  0
 44 45  1  0
 43 46  1  0
 46 47  1  0
 47 48  1  0
 48 49  1  0
 49 50  1  0
 50 51  1  0
 51 52  1  0
 50 53  1  0
 53 54  1  0
 53 55  1  0
 55 56  1  0
 55 57  1  0
 57 58  1  0
 46 59  1  0
 59 60  1  0
 59 61  1  0
 61 62  1  0
 39 63  1  0
 63 64  1  0
 63 65  1  0
 65 66  1  0
 32  1  1  0
 65 34  1  0
 26  6  1  0
 61 41  1  0
 22 14  1  0
 57 48  1  0
  1 67  1  6
  2 68  1  0
  2 69  1  0
  2 70  1  0
  4 71  1  6
  6 72  1  1
  7 73  1  6
  8 74  1  0
  8 75  1  0
  9 76  1  0
 11 77  1  6
 13 78  1  0
 13 79  1  0
 14 80  1  1
 16 81  1  1
 17 82  1  0
 18 83  1  1
 19 84  1  0
 20 85  1  6
 21 86  1  0
 22 87  1  6
 23 88  1  0
 24 89  1  1
 25 90  1  0
 26 91  1  6
 27 92  1  0
 28 93  1  1
 29 94  1  0
 30 95  1  1
 31 96  1  0
 32 97  1  6
 33 98  1  0
 34 99  1  6
 35100  1  0
 37101  1  0
 37102  1  0
 38103  1  0
 39104  1  6
 41105  1  6
 43106  1  1
 44107  1  0
 44108  1  0
 45109  1  0
 46110  1  6
 48111  1  6
 50112  1  1
 51113  1  0
 51114  1  0
 52115  1  0
 53116  1  6
 54117  1  0
 55118  1  1
 56119  1  0
 57120  1  6
 58121  1  0
 59122  1  1
 60123  1  0
 61124  1  6
 62125  1  0
 63126  1  1
 64127  1  0
 65128  1  6
 66129  1  0
M  END
$$$$
