
     RDKit          3D

 66 66  0  0  0  0  0  0  0  0999 V2000
   -2.7572   -0.6233   -0.7682 C   0  0  2  0  0  0  0  0  0  0  0  0
   -2.4649    0.5555   -1.7336 C   0  0  0  0  0  0  0  0  0  0  0  0
   -2.4908    0.1249   -3.2093 C   0  0  0  0  0  0  0  0  0  0  0  0
   -2.0966    1.2805   -4.1282 C   0  0  0  0  0  0  0  0  0  0  0  0
   -2.1420    0.8532   -5.4608 O   0  0  0  0  0  0  0  0  0  0  0  0
   -4.1467   -1.1682   -1.0243 C   0  0  0  0  0  0  0  0  0  0  0  0
   -4.2799   -2.3497   -1.4435 O   0  0  0  0  0  0  0  0  0  0  0  0
   -5.3094   -0.3640   -0.7974 N   0  0  0  0  0  0  0  0  0  0  0  0
   -6.5465   -0.8677   -1.0208 O   0  0  0  0  0  0  0  0  0  0  0  0
   -2.5724   -0.2184    0.7299 C   0  0  1  0  0  0  0  0  0  0  0  0
   -2.8755   -1.4065    1.6917 C   0  0  0  0  0  0  0  0  0  0  0  0
   -2.8465   -1.1041    3.2156 C   0  0  0  0  0  0  0  0  0  0  0  0
   -1.4275   -1.0105    3.7965 C   0  0  0  0  0  0  0  0  0  0  0  0
   -3.6827    0.1234    3.5998 C   0  0  0  0  0  0  0  0  0  0  0  0
   -1.1809    0.3226    0.9624 C   0  0  0  0  0  0  0  0  0  0  0  0
   -1.0388    1.5396    1.2626 O   0  0  0  0  0  0  0  0  0  0  0  0
   -0.0288   -0.5243    0.8185 N   0  0  0  0  0  0  0  0  0  0  0  0
    1.3407   -0.0092    0.9169 C   0  0  1  0  0  0  0  0  0  0  0  0
    2.2665   -1.0795    1.5310 C   0  0  0  0  0  0  0  0  0  0  0  0
    3.7727   -0.8226    1.3251 C   0  0  0  0  0  0  0  0  0  0  0  0
    4.2154    0.6168    1.6434 C   0  0  0  0  0  0  0  0  0  0  0  0
    3.7304    1.7123    0.6573 C   0  0  0  0  0  0  0  0  0  0  0  0
    3.0752    1.1791   -0.5525 N   0  0  0  0  0  0  0  0  0  0  0  0
    3.5777    1.5478   -1.8868 C   0  0  0  0  0  0  0  0  0  0  0  0
    4.1344    0.3218   -2.6363 C   0  0  0  0  0  0  0  0  0  0  0  0
    5.5349    0.4215   -2.8140 O   0  0  0  0  0  0  0  0  0  0  0  0
    6.2102   -0.1380   -1.7100 C   0  0  0  0  0  0  0  0  0  0  0  0
    1.8408    0.4345   -0.4377 C   0  0  0  0  0  0  0  0  0  0  0  0
    1.2045    0.1043   -1.4770 O   0  0  0  0  0  0  0  0  0  0  0  0
   -2.0254   -1.4312   -0.9947 H   0  0  0  0  0  0  0  0  0  0  0  0
   -1.4560    0.9689   -1.5238 H   0  0  0  0  0  0  0  0  0  0  0  0
   -3.1989    1.3743   -1.5699 H   0  0  0  0  0  0  0  0  0  0  0  0
   -1.7810   -0.7172   -3.3635 H   0  0  0  0  0  0  0  0  0  0  0  0
   -3.5113   -0.2183   -3.4856 H   0  0  0  0  0  0  0  0  0  0  0  0
   -1.0653    1.6194   -3.8807 H   0  0  0  0  0  0  0  0  0  0  0  0
   -2.8032    2.1287   -3.9840 H   0  0  0  0  0  0  0  0  0  0  0  0
   -1.8788    1.6369   -6.0100 H   0  0  0  0  0  0  0  0  0  0  0  0
   -5.2174    0.6243   -0.4737 H   0  0  0  0  0  0  0  0  0  0  0  0
   -6.8256   -1.2503   -0.1499 H   0  0  0  0  0  0  0  0  0  0  0  0
   -3.3002    0.5938    0.9435 H   0  0  0  0  0  0  0  0  0  0  0  0
   -2.1933   -2.2559    1.4717 H   0  0  0  0  0  0  0  0  0  0  0  0
   -3.8985   -1.7814    1.4745 H   0  0  0  0  0  0  0  0  0  0  0  0
   -3.3223   -1.9807    3.7103 H   0  0  0  0  0  0  0  0  0  0  0  0
   -0.7938   -1.8409    3.4188 H   0  0  0  0  0  0  0  0  0  0  0  0
   -0.9465   -0.0422    3.5523 H   0  0  0  0  0  0  0  0  0  0  0  0
   -1.4724   -1.0908    4.9036 H   0  0  0  0  0  0  0  0  0  0  0  0
   -3.7923    0.1750    4.7041 H   0  0  0  0  0  0  0  0  0  0  0  0
   -4.6974    0.0525    3.1530 H   0  0  0  0  0  0  0  0  0  0  0  0
   -3.1973    1.0607    3.2553 H   0  0  0  0  0  0  0  0  0  0  0  0
   -0.1679   -1.5055    0.4879 H   0  0  0  0  0  0  0  0  0  0  0  0
    1.3417    0.8641    1.6029 H   0  0  0  0  0  0  0  0  0  0  0  0
    2.0550   -1.1462    2.6208 H   0  0  0  0  0  0  0  0  0  0  0  0
    2.0349   -2.0743    1.0914 H   0  0  0  0  0  0  0  0  0  0  0  0
    4.3312   -1.5151    1.9917 H   0  0  0  0  0  0  0  0  0  0  0  0
    4.0659   -1.0894    0.2879 H   0  0  0  0  0  0  0  0  0  0  0  0
    3.8862    0.8775    2.6730 H   0  0  0  0  0  0  0  0  0  0  0  0
    5.3272    0.6283    1.6595 H   0  0  0  0  0  0  0  0  0  0  0  0
    4.6014    2.3476    0.3872 H   0  0  0  0  0  0  0  0  0  0  0  0
    3.0226    2.3922    1.1784 H   0  0  0  0  0  0  0  0  0  0  0  0
    2.7477    2.0003   -2.4731 H   0  0  0  0  0  0  0  0  0  0  0  0
    4.3602    2.3344   -1.8195 H   0  0  0  0  0  0  0  0  0  0  0  0
    3.8237   -0.6379   -2.1606 H   0  0  0  0  0  0  0  0  0  0  0  0
    3.6770    0.3028   -3.6484 H   0  0  0  0  0  0  0  0  0  0  0  0
    5.9602    0.3993   -0.7716 H   0  0  0  0  0  0  0  0  0  0  0  0
    7.3021   -0.0315   -1.8733 H   0  0  0  0  0  0  0  0  0  0  0  0
    5.9911   -1.2242   -1.6111 H   0  0  0  0  0  0  0  0  0  0  0  0
  1  2  1  0
  2  3  1  0
  3  4  1  0
  4  5  1  0
  1  6  1  0
  6  7  2  0
  6  8  1  0
  8  9  1  0
  1 10  1  0
 10 11  1  0
 11 12  1  0
 12 13  1  0
 12 14  1  0
 10 15  1  0
 15 16  2  0
 15 17  1  0
 17 18  1  0
 18 19  1  0
 19 20  1  0
 20 21  1  0
 21 22  1  0
 22 23  1  0
 23 24  1  0
 24 25  1  0
 25 26  1  0
 26 27  1  0
 23 28  1  0
 28 29  2  0
 28 18  1  0
  1 30  1  6
  2 31  1  0
  2 32  1  0
  3 33  1  0
  3 34  1  0
  4 35  1  0
  4 36  1  0
  5 37  1  0
  8 38  1  0
  9 39  1  0
 10 40  1  1
 11 41  1  0
 11 42  1  0
 12 43  1  0
 13 44  1  0
 13 45  1  0
 13 46  1  0
 14 47  1  0
 14 48  1  0
 14 49  1  0
 17 50  1  0
 18 51  1  1
 19 52  1  0
 19 53  1  0
 20 54  1  0
 20 55  1  0
 21 56  1  0
 21 57  1  0
 22 58  1  0
 22 59  1  0
 24 60  1  0
 24 61  1  0
 25 62  1  0
 25 63  1  0
 27 64  1  0
 27 65  1  0
 27 66  1  0
M  END
$$$$
