
     RDKit          3D

 33 33  0  0  0  0  0  0  0  0999 V2000
    2.5673    0.9386   -1.9297 O   0  0  0  0  0  0  0  0  0  0  0  0
    2.7799    0.6024   -0.5916 C   0  0  0  0  0  0  0  0  0  0  0  0
    4.2120    0.4650   -0.1192 C   0  0  0  0  0  0  0  0  0  0  0  0
    4.6742   -0.9904   -0.2173 C   0  0  0  0  0  0  0  0  0  0  0  0
    6.0674   -1.1169    0.2246 C   0  0  0  0  0  0  0  0  0  0  0  0
    7.2122   -1.2213    0.5879 C   0  0  0  0  0  0  0  0  0  0  0  0
    1.7223    0.3914    0.2297 C   0  0  0  0  0  0  0  0  0  0  0  0
    1.9339    0.0345    1.6166 C   0  0  0  0  0  0  0  0  0  0  0  0
    2.1024   -0.2515    2.7253 N   0  0  0  0  0  0  0  0  0  0  0  0
    0.3148    0.4897   -0.2460 C   0  0  0  0  0  0  0  0  0  0  0  0
    0.0573    0.4661   -1.4807 O   0  0  0  0  0  0  0  0  0  0  0  0
   -0.7607    0.6327    0.6991 N   0  0  0  0  0  0  0  0  0  0  0  0
   -2.1423    0.3856    0.3847 C   0  0  0  0  0  0  0  0  0  0  0  0
   -3.1397    1.1224    1.0388 C   0  0  0  0  0  0  0  0  0  0  0  0
   -4.4904    0.8869    0.7670 C   0  0  0  0  0  0  0  0  0  0  0  0
   -4.8700   -0.1158   -0.1413 C   0  0  0  0  0  0  0  0  0  0  0  0
   -3.8701   -0.8516   -0.7998 C   0  0  0  0  0  0  0  0  0  0  0  0
   -2.5194   -0.6146   -0.5282 C   0  0  0  0  0  0  0  0  0  0  0  0
   -6.3247   -0.3373   -0.4717 C   0  0  0  0  0  0  0  0  0  0  0  0
   -6.5499   -1.6556   -0.8285 F   0  0  0  0  0  0  0  0  0  0  0  0
   -7.1244   -0.0422    0.6190 F   0  0  0  0  0  0  0  0  0  0  0  0
   -6.6814    0.4819   -1.5264 F   0  0  0  0  0  0  0  0  0  0  0  0
    3.3381    1.0805   -2.5716 H   0  0  0  0  0  0  0  0  0  0  0  0
    4.8663    1.1013   -0.7546 H   0  0  0  0  0  0  0  0  0  0  0  0
    4.3241    0.8379    0.9225 H   0  0  0  0  0  0  0  0  0  0  0  0
    4.5998   -1.3416   -1.2688 H   0  0  0  0  0  0  0  0  0  0  0  0
    4.0385   -1.6386    0.4224 H   0  0  0  0  0  0  0  0  0  0  0  0
    8.2171   -1.3128    0.9069 H   0  0  0  0  0  0  0  0  0  0  0  0
   -0.5409    1.0335    1.6390 H   0  0  0  0  0  0  0  0  0  0  0  0
   -2.8684    1.8924    1.7501 H   0  0  0  0  0  0  0  0  0  0  0  0
   -5.2382    1.4894    1.2673 H   0  0  0  0  0  0  0  0  0  0  0  0
   -4.1329   -1.6154   -1.5210 H   0  0  0  0  0  0  0  0  0  0  0  0
   -1.7740   -1.2266   -1.0183 H   0  0  0  0  0  0  0  0  0  0  0  0
  1  2  1  0
  2  3  1  0
  3  4  1  0
  4  5  1  0
  5  6  3  0
  2  7  2  0
  7  8  1  0
  8  9  3  0
  7 10  1  0
 10 11  2  0
 10 12  1  0
 12 13  1  0
 13 14  2  0
 14 15  1  0
 15 16  2  0
 16 17  1  0
 17 18  2  0
 16 19  1  0
 19 20  1  0
 19 21  1  0
 19 22  1  0
 18 13  1  0
  1 23  1  0
  3 24  1  0
  3 25  1  0
  4 26  1  0
  4 27  1  0
  6 28  1  0
 12 29  1  0
 14 30  1  0
 15 31  1  0
 17 32  1  0
 18 33  1  0
M  END
$$$$
