
     RDKit          3D

 78 83  0  0  0  0  0  0  0  0999 V2000
    4.4067    0.2320    0.8100 C   0  0  1  0  0  0  0  0  0  0  0  0
    2.9683    0.2174    0.2820 C   0  0  0  0  0  0  0  0  0  0  0  0
    2.5456    1.5368    0.0345 O   0  0  0  0  0  0  0  0  0  0  0  0
    0.9182    1.5031   -0.4736 P   0  0  0  0  0  5  0  0  0  0  0  0
    0.7428    0.5016   -1.8292 O   0  0  0  0  0  0  0  0  0  0  0  0
    0.0346    1.0058    0.6495 O   0  0  0  0  0  0  0  0  0  0  0  0
    0.4202    3.1878   -0.9419 C   0  0  0  0  0  0  0  0  0  0  0  0
    0.5121    4.3081    0.4928 P   0  0  0  0  0  5  0  0  0  0  0  0
    2.0552    4.1973    1.1797 O   0  0  0  0  0  0  0  0  0  0  0  0
    0.2967    5.7366    0.0394 O   0  0  0  0  0  0  0  0  0  0  0  0
   -0.6312    3.8410    1.6703 O   0  0  0  0  0  0  0  0  0  0  0  0
   -2.1408    4.5504    1.3015 P   0  0  2  0  0  5  0  0  0  0  0  0
   -2.3572    4.7954   -0.3636 O   0  0  0  0  0  0  0  0  0  0  0  0
   -2.2618    6.0679    2.1219 S   0  0  0  0  0  0  0  0  0  0  0  0
   -3.3771    3.5288    1.8843 O   0  0  0  0  0  0  0  0  0  0  0  0
   -3.3448    2.2938    1.1960 C   0  0  0  0  0  0  0  0  0  0  0  0
   -4.4953    2.2101    0.1845 C   0  0  1  0  0  0  0  0  0  0  0  0
   -4.4717    0.9535   -0.4555 O   0  0  0  0  0  0  0  0  0  0  0  0
   -5.8088    0.5441   -0.6647 C   0  0  1  0  0  0  0  0  0  0  0  0
   -6.0214   -0.7666   -0.0463 N   0  0  0  0  0  0  0  0  0  0  0  0
   -5.5411   -1.2205    1.1415 C   0  0  0  0  0  0  0  0  0  0  0  0
   -6.0126   -2.4527    1.4797 N   0  0  0  0  0  0  0  0  0  0  0  0
   -6.8264   -2.7517    0.4495 C   0  0  0  0  0  0  0  0  0  0  0  0
   -7.6155   -3.8776    0.2437 C   0  0  0  0  0  0  0  0  0  0  0  0
   -7.6376   -4.9613    1.1728 N   0  0  0  0  0  0  0  0  0  0  0  0
   -8.3839   -3.9140   -0.8861 N   0  0  0  0  0  0  0  0  0  0  0  0
   -8.3824   -2.8777   -1.7856 C   0  0  0  0  0  0  0  0  0  0  0  0
   -7.6042   -1.7740   -1.5713 N   0  0  0  0  0  0  0  0  0  0  0  0
   -6.8385   -1.7452   -0.4536 C   0  0  0  0  0  0  0  0  0  0  0  0
   -6.7632    1.5813   -0.0604 C   0  0  2  0  0  0  0  0  0  0  0  0
   -7.3657    2.3689   -1.0625 O   0  0  0  0  0  0  0  0  0  0  0  0
   -5.8591    2.3925    0.8391 C   0  0  2  0  0  0  0  0  0  0  0  0
   -6.2219    3.7485    0.8822 O   0  0  0  0  0  0  0  0  0  0  0  0
    4.7980   -1.0799    1.1473 O   0  0  0  0  0  0  0  0  0  0  0  0
    6.1544   -1.2366    0.7816 C   0  0  1  0  0  0  0  0  0  0  0  0
    6.2836   -2.3460   -0.1668 N   0  0  0  0  0  0  0  0  0  0  0  0
    5.4455   -2.6855   -1.1819 C   0  0  0  0  0  0  0  0  0  0  0  0
    5.9115   -3.7109   -1.9476 N   0  0  0  0  0  0  0  0  0  0  0  0
    7.0946   -3.9968   -1.3722 C   0  0  0  0  0  0  0  0  0  0  0  0
    8.0474   -4.9431   -1.7319 C   0  0  0  0  0  0  0  0  0  0  0  0
    7.8536   -5.8228   -2.8396 N   0  0  0  0  0  0  0  0  0  0  0  0
    9.1924   -5.0031   -0.9879 N   0  0  0  0  0  0  0  0  0  0  0  0
    9.3998   -4.1594    0.0743 C   0  0  0  0  0  0  0  0  0  0  0  0
    8.4567   -3.2305    0.4172 N   0  0  0  0  0  0  0  0  0  0  0  0
    7.3199   -3.1795   -0.3186 C   0  0  0  0  0  0  0  0  0  0  0  0
    6.6724    0.0612    0.1601 C   0  0  2  0  0  0  0  0  0  0  0  0
    7.4027    0.7817    1.1225 O   0  0  0  0  0  0  0  0  0  0  0  0
    5.3999    0.7814   -0.2093 C   0  0  2  0  0  0  0  0  0  0  0  0
    5.5426    2.1750   -0.0962 O   0  0  0  0  0  0  0  0  0  0  0  0
    4.4394    0.8504    1.7362 H   0  0  0  0  0  0  0  0  0  0  0  0
    2.9325   -0.3912   -0.6491 H   0  0  0  0  0  0  0  0  0  0  0  0
    2.3273   -0.2614    1.0572 H   0  0  0  0  0  0  0  0  0  0  0  0
    0.5690   -0.4026   -1.4641 H   0  0  0  0  0  0  0  0  0  0  0  0
    1.1013    3.5565   -1.7361 H   0  0  0  0  0  0  0  0  0  0  0  0
   -0.6143    3.1637   -1.3383 H   0  0  0  0  0  0  0  0  0  0  0  0
    2.6777    4.4434    0.4495 H   0  0  0  0  0  0  0  0  0  0  0  0
   -3.2620    5.1888   -0.4520 H   0  0  0  0  0  0  0  0  0  0  0  0
   -2.3847    2.0775    0.6741 H   0  0  0  0  0  0  0  0  0  0  0  0
   -3.4653    1.4828    1.9453 H   0  0  0  0  0  0  0  0  0  0  0  0
   -4.3458    2.9909   -0.5932 H   0  0  0  0  0  0  0  0  0  0  0  0
   -5.9783    0.4555   -1.7610 H   0  0  0  0  0  0  0  0  0  0  0  0
   -4.8637   -0.6566    1.7689 H   0  0  0  0  0  0  0  0  0  0  0  0
   -8.2420   -5.7935    0.9936 H   0  0  0  0  0  0  0  0  0  0  0  0
   -7.0541   -4.9394    2.0387 H   0  0  0  0  0  0  0  0  0  0  0  0
   -9.0028   -2.9334   -2.6694 H   0  0  0  0  0  0  0  0  0  0  0  0
   -7.5693    1.1019    0.5383 H   0  0  0  0  0  0  0  0  0  0  0  0
   -6.6458    2.7862   -1.6053 H   0  0  0  0  0  0  0  0  0  0  0  0
   -5.8617    1.9520    1.8648 H   0  0  0  0  0  0  0  0  0  0  0  0
   -7.0357    3.8022    1.4479 H   0  0  0  0  0  0  0  0  0  0  0  0
    6.7348   -1.4810    1.6993 H   0  0  0  0  0  0  0  0  0  0  0  0
    4.5071   -2.1846   -1.3778 H   0  0  0  0  0  0  0  0  0  0  0  0
    6.9819   -5.7815   -3.4131 H   0  0  0  0  0  0  0  0  0  0  0  0
    8.5877   -6.5222   -3.0884 H   0  0  0  0  0  0  0  0  0  0  0  0
   10.3167   -4.2282    0.6431 H   0  0  0  0  0  0  0  0  0  0  0  0
    7.3011   -0.1349   -0.7416 H   0  0  0  0  0  0  0  0  0  0  0  0
    7.9800    1.4191    0.6263 H   0  0  0  0  0  0  0  0  0  0  0  0
    5.1138    0.4908   -1.2492 H   0  0  0  0  0  0  0  0  0  0  0  0
    4.8419    2.5819   -0.6687 H   0  0  0  0  0  0  0  0  0  0  0  0
  1  2  1  0
  2  3  1  0
  3  4  1  0
  4  5  1  0
  4  6  2  0
  4  7  1  0
  7  8  1  0
  8  9  1  0
  8 10  2  0
  8 11  1  0
 12 11  1  6
 12 13  1  0
 12 14  2  0
 12 15  1  0
 15 16  1  0
 16 17  1  0
 17 18  1  0
 18 19  1  0
 19 20  1  0
 20 21  1  0
 21 22  2  0
 22 23  1  0
 23 24  2  0
 24 25  1  0
 24 26  1  0
 26 27  2  0
 27 28  1  0
 28 29  2  0
 19 30  1  0
 30 31  1  0
 30 32  1  0
 32 33  1  0
  1 34  1  0
 34 35  1  0
 35 36  1  0
 36 37  1  0
 37 38  2  0
 38 39  1  0
 39 40  2  0
 40 41  1  0
 40 42  1  0
 42 43  2  0
 43 44  1  0
 44 45  2  0
 35 46  1  0
 46 47  1  0
 46 48  1  0
 48 49  1  0
 48  1  1  0
 32 17  1  0
 45 36  1  0
 29 20  1  0
 45 39  1  0
 29 23  1  0
  1 50  1  1
  2 51  1  0
  2 52  1  0
  5 53  1  0
  7 54  1  0
  7 55  1  0
  9 56  1  0
 13 57  1  0
 16 58  1  0
 16 59  1  0
 17 60  1  6
 19 61  1  6
 21 62  1  0
 25 63  1  0
 25 64  1  0
 27 65  1  0
 30 66  1  1
 31 67  1  0
 32 68  1  1
 33 69  1  0
 35 70  1  1
 37 71  1  0
 41 72  1  0
 41 73  1  0
 43 74  1  0
 46 75  1  6
 47 76  1  0
 48 77  1  6
 49 78  1  0
M  END
$$$$
