
     RDKit          3D

 46 48  0  0  0  0  0  0  0  0999 V2000
   -0.7346    0.0857   -2.4325 C   0  0  0  0  0  0  0  0  0  0  0  0
   -1.5056    0.2091   -1.1099 C   0  0  0  0  0  0  0  0  0  0  0  0
   -0.6583    0.9071   -0.0544 C   0  0  0  0  0  0  0  0  0  0  0  0
    0.1356    0.3850    0.9121 C   0  0  0  0  0  0  0  0  0  0  0  0
    0.3689   -1.0689    1.2534 C   0  0  0  0  0  0  0  0  0  0  0  0
    1.3488   -1.7616    0.2959 C   0  0  0  0  0  0  0  0  0  0  0  0
    2.5958   -0.9810    0.1304 N   0  0  0  0  0  0  0  0  0  0  0  0
    3.5232   -1.2198    1.2503 C   0  0  0  0  0  0  0  0  0  0  0  0
    3.2563   -1.3397   -1.1348 C   0  0  0  0  0  0  0  0  0  0  0  0
    0.8026    1.4682    1.7251 C   0  0  0  0  0  0  0  0  0  0  0  0
    0.3120    2.6914    1.0474 C   0  0  0  0  0  0  0  0  0  0  0  0
    0.6212    4.0201    1.3409 C   0  0  0  0  0  0  0  0  0  0  0  0
    0.0505    5.0302    0.5508 C   0  0  0  0  0  0  0  0  0  0  0  0
   -0.8094    4.6968   -0.5129 C   0  0  0  0  0  0  0  0  0  0  0  0
   -1.1052    3.3522   -0.7902 C   0  0  0  0  0  0  0  0  0  0  0  0
   -0.5301    2.3619    0.0152 C   0  0  0  0  0  0  0  0  0  0  0  0
   -2.1712   -1.0620   -0.6212 C   0  0  0  0  0  0  0  0  0  0  0  0
   -1.8917   -2.3355   -1.1576 C   0  0  0  0  0  0  0  0  0  0  0  0
   -2.5428   -3.4574   -0.6414 C   0  0  0  0  0  0  0  0  0  0  0  0
   -3.4675   -3.3124    0.3921 C   0  0  0  0  0  0  0  0  0  0  0  0
   -3.7309   -2.0392    0.8967 C   0  0  0  0  0  0  0  0  0  0  0  0
   -3.0859   -0.9576    0.3851 N   0  0  0  0  0  0  0  0  0  0  0  0
   -1.3809   -0.3664   -3.2148 H   0  0  0  0  0  0  0  0  0  0  0  0
   -0.4297    1.0930   -2.7883 H   0  0  0  0  0  0  0  0  0  0  0  0
    0.1812   -0.5235   -2.3166 H   0  0  0  0  0  0  0  0  0  0  0  0
   -2.3575    0.8862   -1.3338 H   0  0  0  0  0  0  0  0  0  0  0  0
    0.7824   -1.1293    2.2818 H   0  0  0  0  0  0  0  0  0  0  0  0
   -0.5828   -1.6291    1.3054 H   0  0  0  0  0  0  0  0  0  0  0  0
    1.5644   -2.7882    0.6699 H   0  0  0  0  0  0  0  0  0  0  0  0
    0.8356   -1.8938   -0.6756 H   0  0  0  0  0  0  0  0  0  0  0  0
    3.0643   -0.9095    2.2112 H   0  0  0  0  0  0  0  0  0  0  0  0
    3.8136   -2.2923    1.3155 H   0  0  0  0  0  0  0  0  0  0  0  0
    4.4411   -0.6063    1.1236 H   0  0  0  0  0  0  0  0  0  0  0  0
    4.1985   -0.7628   -1.2566 H   0  0  0  0  0  0  0  0  0  0  0  0
    3.4874   -2.4279   -1.1738 H   0  0  0  0  0  0  0  0  0  0  0  0
    2.6044   -1.0757   -1.9945 H   0  0  0  0  0  0  0  0  0  0  0  0
    0.4597    1.4392    2.7811 H   0  0  0  0  0  0  0  0  0  0  0  0
    1.9082    1.3974    1.6531 H   0  0  0  0  0  0  0  0  0  0  0  0
    1.2880    4.2669    2.1569 H   0  0  0  0  0  0  0  0  0  0  0  0
    0.2752    6.0684    0.7578 H   0  0  0  0  0  0  0  0  0  0  0  0
   -1.2425    5.4801   -1.1213 H   0  0  0  0  0  0  0  0  0  0  0  0
   -1.7595    3.1019   -1.6138 H   0  0  0  0  0  0  0  0  0  0  0  0
   -1.1789   -2.4741   -1.9581 H   0  0  0  0  0  0  0  0  0  0  0  0
   -2.3303   -4.4397   -1.0432 H   0  0  0  0  0  0  0  0  0  0  0  0
   -3.9763   -4.1777    0.7968 H   0  0  0  0  0  0  0  0  0  0  0  0
   -4.4474   -1.9096    1.6967 H   0  0  0  0  0  0  0  0  0  0  0  0
  1  2  1  0
  2  3  1  0
  3  4  2  0
  4  5  1  0
  5  6  1  0
  6  7  1  0
  7  8  1  0
  7  9  1  0
  4 10  1  0
 10 11  1  0
 11 12  2  0
 12 13  1  0
 13 14  2  0
 14 15  1  0
 15 16  2  0
  2 17  1  0
 17 18  2  0
 18 19  1  0
 19 20  2  0
 20 21  1  0
 21 22  2  0
 16  3  1  0
 22 17  1  0
 16 11  1  0
  1 23  1  0
  1 24  1  0
  1 25  1  0
  2 26  1  0
  5 27  1  0
  5 28  1  0
  6 29  1  0
  6 30  1  0
  8 31  1  0
  8 32  1  0
  8 33  1  0
  9 34  1  0
  9 35  1  0
  9 36  1  0
 10 37  1  0
 10 38  1  0
 12 39  1  0
 13 40  1  0
 14 41  1  0
 15 42  1  0
 18 43  1  0
 19 44  1  0
 20 45  1  0
 21 46  1  0
M  END
$$$$
