
     RDKit          3D

 75 78  0  0  0  0  0  0  0  0999 V2000
    3.3413   -1.0535   -2.9419 C   0  0  0  0  0  0  0  0  0  0  0  0
    3.4158   -0.8087   -1.4175 C   0  0  2  0  0  0  0  0  0  0  0  0
    3.6131   -2.1696   -0.6986 C   0  0  0  0  0  0  0  0  0  0  0  0
    3.9680   -2.0828    0.7970 C   0  0  0  0  0  0  0  0  0  0  0  0
    5.2229   -1.2930    1.0305 C   0  0  0  0  0  0  0  0  0  0  0  0
    6.3317   -1.7703    0.6656 O   0  0  0  0  0  0  0  0  0  0  0  0
    5.1582    0.0090    1.6296 N   0  0  0  0  0  0  0  0  0  0  0  0
    6.2900    0.9306    1.6154 C   0  0  0  0  0  0  0  0  0  0  0  0
    6.4761    1.4880    0.2409 C   0  0  0  0  0  0  0  0  0  0  0  0
    7.3958    0.9063   -0.6256 O   0  0  0  0  0  0  0  0  0  0  0  0
    5.7687    2.4555   -0.1480 O   0  0  0  0  0  0  0  0  0  0  0  0
    2.2963    0.1065   -0.7916 C   0  0  1  0  0  0  0  0  0  0  0  0
    2.2858    1.5492   -1.3673 C   0  0  0  0  0  0  0  0  0  0  0  0
    0.8307    2.0323   -1.3287 C   0  0  0  0  0  0  0  0  0  0  0  0
    0.1362    1.0311   -0.4164 C   0  0  1  0  0  0  0  0  0  0  0  0
   -1.4150    1.0055   -0.4026 C   0  0  2  0  0  0  0  0  0  0  0  0
   -2.0432    2.3944   -0.0397 C   0  0  2  0  0  0  0  0  0  0  0  0
   -1.1586    3.2295    0.6693 O   0  0  0  0  0  0  0  0  0  0  0  0
   -3.3667    2.2847    0.7433 C   0  0  0  0  0  0  0  0  0  0  0  0
   -4.2413    1.1002    0.2920 C   0  0  2  0  0  0  0  0  0  0  0  0
   -5.5872    1.1911    1.0679 C   0  0  0  0  0  0  0  0  0  0  0  0
   -6.3781   -0.1169    1.0551 C   0  0  2  0  0  0  0  0  0  0  0  0
   -7.5712    0.0660    1.7724 O   0  0  0  0  0  0  0  0  0  0  0  0
   -5.5639   -1.2777    1.6722 C   0  0  0  0  0  0  0  0  0  0  0  0
   -4.0396   -1.0381    1.6945 C   0  0  0  0  0  0  0  0  0  0  0  0
   -3.5040   -0.3005    0.4312 C   0  0  1  0  0  0  0  0  0  0  0  0
   -3.8297   -1.1664   -0.8264 C   0  0  0  0  0  0  0  0  0  0  0  0
   -1.9312   -0.1087    0.5720 C   0  0  1  0  0  0  0  0  0  0  0  0
   -1.1255   -1.4528    0.4889 C   0  0  0  0  0  0  0  0  0  0  0  0
    0.4049   -1.2790    0.3993 C   0  0  0  0  0  0  0  0  0  0  0  0
    0.7931   -0.3210   -0.7516 C   0  0  2  0  0  0  0  0  0  0  0  0
    0.3349   -0.9034   -2.1201 C   0  0  0  0  0  0  0  0  0  0  0  0
    4.3531   -1.3198   -3.3167 H   0  0  0  0  0  0  0  0  0  0  0  0
    3.0130   -0.1682   -3.5151 H   0  0  0  0  0  0  0  0  0  0  0  0
    2.6836   -1.9075   -3.1943 H   0  0  0  0  0  0  0  0  0  0  0  0
    4.3614   -0.2393   -1.2757 H   0  0  0  0  0  0  0  0  0  0  0  0
    4.4385   -2.7207   -1.2028 H   0  0  0  0  0  0  0  0  0  0  0  0
    2.7111   -2.7994   -0.8283 H   0  0  0  0  0  0  0  0  0  0  0  0
    3.1259   -1.6601    1.3796 H   0  0  0  0  0  0  0  0  0  0  0  0
    4.1263   -3.1134    1.1814 H   0  0  0  0  0  0  0  0  0  0  0  0
    4.2600    0.3344    2.0526 H   0  0  0  0  0  0  0  0  0  0  0  0
    6.0958    1.7653    2.3232 H   0  0  0  0  0  0  0  0  0  0  0  0
    7.2124    0.4095    1.9506 H   0  0  0  0  0  0  0  0  0  0  0  0
    7.5162    1.2585   -1.5678 H   0  0  0  0  0  0  0  0  0  0  0  0
    2.5983    0.2434    0.2693 H   0  0  0  0  0  0  0  0  0  0  0  0
    2.6689    1.6253   -2.4017 H   0  0  0  0  0  0  0  0  0  0  0  0
    2.9198    2.2102   -0.7353 H   0  0  0  0  0  0  0  0  0  0  0  0
    0.7742    3.0686   -0.9342 H   0  0  0  0  0  0  0  0  0  0  0  0
    0.3822    2.0077   -2.3457 H   0  0  0  0  0  0  0  0  0  0  0  0
    0.4503    1.3036    0.6202 H   0  0  0  0  0  0  0  0  0  0  0  0
   -1.7601    0.7789   -1.4294 H   0  0  0  0  0  0  0  0  0  0  0  0
   -2.2699    2.9104   -0.9992 H   0  0  0  0  0  0  0  0  0  0  0  0
   -0.9883    2.8121    1.5540 H   0  0  0  0  0  0  0  0  0  0  0  0
   -3.9281    3.2374    0.6170 H   0  0  0  0  0  0  0  0  0  0  0  0
   -3.1558    2.1761    1.8306 H   0  0  0  0  0  0  0  0  0  0  0  0
   -4.4729    1.2813   -0.7828 H   0  0  0  0  0  0  0  0  0  0  0  0
   -5.4051    1.4696    2.1308 H   0  0  0  0  0  0  0  0  0  0  0  0
   -6.2107    1.9975    0.6220 H   0  0  0  0  0  0  0  0  0  0  0  0
   -6.6351   -0.3501   -0.0022 H   0  0  0  0  0  0  0  0  0  0  0  0
   -8.1586   -0.7038    1.5515 H   0  0  0  0  0  0  0  0  0  0  0  0
   -5.7819   -2.2072    1.1021 H   0  0  0  0  0  0  0  0  0  0  0  0
   -5.8954   -1.4600    2.7183 H   0  0  0  0  0  0  0  0  0  0  0  0
   -3.5462   -2.0244    1.8187 H   0  0  0  0  0  0  0  0  0  0  0  0
   -3.7904   -0.4386    2.5982 H   0  0  0  0  0  0  0  0  0  0  0  0
   -3.2389   -0.8516   -1.7083 H   0  0  0  0  0  0  0  0  0  0  0  0
   -4.8917   -1.0894   -1.1241 H   0  0  0  0  0  0  0  0  0  0  0  0
   -3.6373   -2.2440   -0.6407 H   0  0  0  0  0  0  0  0  0  0  0  0
   -1.7268    0.2714    1.5991 H   0  0  0  0  0  0  0  0  0  0  0  0
   -1.4414   -2.0692   -0.3724 H   0  0  0  0  0  0  0  0  0  0  0  0
   -1.3324   -2.0591    1.3953 H   0  0  0  0  0  0  0  0  0  0  0  0
    0.7785   -0.8934    1.3736 H   0  0  0  0  0  0  0  0  0  0  0  0
    0.8559   -2.2787    0.2496 H   0  0  0  0  0  0  0  0  0  0  0  0
   -0.7626   -0.9743   -2.2191 H   0  0  0  0  0  0  0  0  0  0  0  0
    0.7065   -1.9409   -2.2320 H   0  0  0  0  0  0  0  0  0  0  0  0
    0.6891   -0.2861   -2.9698 H   0  0  0  0  0  0  0  0  0  0  0  0
  1  2  1  0
  2  3  1  0
  3  4  1  0
  4  5  1  0
  5  6  2  0
  5  7  1  0
  7  8  1  0
  8  9  1  0
  9 10  1  0
  9 11  2  0
  2 12  1  0
 12 13  1  0
 13 14  1  0
 14 15  1  0
 15 16  1  0
 16 17  1  0
 17 18  1  0
 17 19  1  0
 19 20  1  0
 20 21  1  0
 21 22  1  0
 22 23  1  0
 22 24  1  0
 24 25  1  0
 25 26  1  0
 26 27  1  6
 26 28  1  0
 28 29  1  0
 29 30  1  0
 30 31  1  0
 31 32  1  6
 31 12  1  0
 31 15  1  0
 28 16  1  0
 26 20  1  0
  1 33  1  0
  1 34  1  0
  1 35  1  0
  2 36  1  6
  3 37  1  0
  3 38  1  0
  4 39  1  0
  4 40  1  0
  7 41  1  0
  8 42  1  0
  8 43  1  0
 10 44  1  0
 12 45  1  1
 13 46  1  0
 13 47  1  0
 14 48  1  0
 14 49  1  0
 15 50  1  1
 16 51  1  6
 17 52  1  6
 18 53  1  0
 19 54  1  0
 19 55  1  0
 20 56  1  6
 21 57  1  0
 21 58  1  0
 22 59  1  6
 23 60  1  0
 24 61  1  0
 24 62  1  0
 25 63  1  0
 25 64  1  0
 27 65  1  0
 27 66  1  0
 27 67  1  0
 28 68  1  1
 29 69  1  0
 29 70  1  0
 30 71  1  0
 30 72  1  0
 32 73  1  0
 32 74  1  0
 32 75  1  0
M  END
$$$$
