
     RDKit          3D

 26 26  0  0  0  0  0  0  0  0999 V2000
    3.9212    1.0120    0.9874 C   0  0  0  0  0  0  0  0  0  0  0  0
    3.1897    0.0795    0.1282 N   0  0  0  0  0  0  0  0  0  0  0  0
    1.7460    0.3332    0.2145 C   0  0  0  0  0  0  0  0  0  0  0  0
    0.9621   -0.7661   -0.5205 C   0  0  2  0  0  0  0  0  0  0  0  0
    1.2277   -0.7165   -1.9003 O   0  0  0  0  0  0  0  0  0  0  0  0
   -0.5215   -0.5872   -0.2900 C   0  0  0  0  0  0  0  0  0  0  0  0
   -1.2322    0.4292   -0.9535 C   0  0  0  0  0  0  0  0  0  0  0  0
   -2.5993    0.6139   -0.7184 C   0  0  0  0  0  0  0  0  0  0  0  0
   -3.2727    1.6276   -1.3994 O   0  0  0  0  0  0  0  0  0  0  0  0
   -3.2699   -0.2166    0.1952 C   0  0  0  0  0  0  0  0  0  0  0  0
   -4.6319   -0.0387    0.4328 O   0  0  0  0  0  0  0  0  0  0  0  0
   -2.5629   -1.2220    0.8680 C   0  0  0  0  0  0  0  0  0  0  0  0
   -1.1979   -1.4034    0.6317 C   0  0  0  0  0  0  0  0  0  0  0  0
    3.7052    2.0663    0.7045 H   0  0  0  0  0  0  0  0  0  0  0  0
    5.0120    0.8343    0.8783 H   0  0  0  0  0  0  0  0  0  0  0  0
    3.6526    0.8470    2.0530 H   0  0  0  0  0  0  0  0  0  0  0  0
    3.4959    0.2642   -0.8559 H   0  0  0  0  0  0  0  0  0  0  0  0
    1.4285    0.3344    1.2824 H   0  0  0  0  0  0  0  0  0  0  0  0
    1.5039    1.3279   -0.2252 H   0  0  0  0  0  0  0  0  0  0  0  0
    1.2761   -1.7571   -0.1121 H   0  0  0  0  0  0  0  0  0  0  0  0
    2.0297   -1.2779   -2.0661 H   0  0  0  0  0  0  0  0  0  0  0  0
   -0.7235    1.0812   -1.6532 H   0  0  0  0  0  0  0  0  0  0  0  0
   -4.2613    1.8022   -1.2638 H   0  0  0  0  0  0  0  0  0  0  0  0
   -5.1373   -0.6243    1.0875 H   0  0  0  0  0  0  0  0  0  0  0  0
   -3.0706   -1.8625    1.5780 H   0  0  0  0  0  0  0  0  0  0  0  0
   -0.6694   -2.1807    1.1696 H   0  0  0  0  0  0  0  0  0  0  0  0
  1  2  1  0
  2  3  1  0
  3  4  1  0
  4  5  1  0
  4  6  1  0
  6  7  2  0
  7  8  1  0
  8  9  1  0
  8 10  2  0
 10 11  1  0
 10 12  1  0
 12 13  2  0
 13  6  1  0
  1 14  1  0
  1 15  1  0
  1 16  1  0
  2 17  1  0
  3 18  1  0
  3 19  1  0
  4 20  1  1
  5 21  1  0
  7 22  1  0
  9 23  1  0
 11 24  1  0
 12 25  1  0
 13 26  1  0
M  END
$$$$
