
     RDKit          3D

 60 64  0  0  0  0  0  0  0  0999 V2000
   -5.8918    1.7393   -2.4104 C   0  0  0  0  0  0  0  0  0  0  0  0
   -4.6266    2.3265   -1.7949 C   0  0  0  0  0  0  0  0  0  0  0  0
   -4.2718    1.6094   -0.5229 C   0  0  0  0  0  0  0  0  0  0  0  0
   -4.6072    2.1010    0.6894 N   0  0  0  0  0  0  0  0  0  0  0  0
   -4.1445    1.1848    1.5620 C   0  0  0  0  0  0  0  0  0  0  0  0
   -4.3283    1.2781    3.0489 C   0  0  0  0  0  0  0  0  0  0  0  0
   -4.2276    2.6805    3.6331 C   0  0  0  0  0  0  0  0  0  0  0  0
   -3.0792    1.7028    3.8062 C   0  0  0  0  0  0  0  0  0  0  0  0
   -3.5754    0.1326    0.8715 C   0  0  0  0  0  0  0  0  0  0  0  0
   -3.6503    0.4045   -0.4510 N   0  0  0  0  0  0  0  0  0  0  0  0
   -3.0366   -0.3541   -1.5504 C   0  0  0  0  0  0  0  0  0  0  0  0
   -1.5356   -0.2858   -1.4594 C   0  0  0  0  0  0  0  0  0  0  0  0
   -0.7868   -1.4433   -1.1490 C   0  0  0  0  0  0  0  0  0  0  0  0
    0.5962   -1.3177   -1.0409 C   0  0  0  0  0  0  0  0  0  0  0  0
    1.2303   -0.1186   -1.2200 C   0  0  0  0  0  0  0  0  0  0  0  0
    2.5221   -0.2485   -1.0443 O   0  0  0  0  0  0  0  0  0  0  0  0
    2.7633   -1.5148   -0.7500 C   0  0  0  0  0  0  0  0  0  0  0  0
    1.5699   -2.2411   -0.7358 C   0  0  0  0  0  0  0  0  0  0  0  0
    1.2937   -4.0740   -0.2577 Br  0  0  0  0  0  0  0  0  0  0  0  0
    4.1196   -2.0355   -0.4775 C   0  0  0  0  0  0  0  0  0  0  0  0
    4.5277   -3.2469   -1.0622 C   0  0  0  0  0  0  0  0  0  0  0  0
    5.8264   -3.7230   -0.8746 C   0  0  0  0  0  0  0  0  0  0  0  0
    6.7342   -2.9934   -0.1082 C   0  0  0  0  0  0  0  0  0  0  0  0
    6.3469   -1.7851    0.4735 C   0  0  0  0  0  0  0  0  0  0  0  0
    5.0437   -1.2902    0.2931 C   0  0  0  0  0  0  0  0  0  0  0  0
    4.6415   -0.0741    0.9437 N   0  0  0  0  0  0  0  0  0  0  0  0
    5.6250    1.3542    0.9366 S   0  0  0  0  0  6  0  0  0  0  0  0
    4.7929    2.5166    1.4002 O   0  0  0  0  0  0  0  0  0  0  0  0
    6.7878    1.1842    1.8732 O   0  0  0  0  0  0  0  0  0  0  0  0
    6.2048    1.6959   -0.7140 C   0  0  0  0  0  0  0  0  0  0  0  0
    7.1183    0.7342   -1.1003 F   0  0  0  0  0  0  0  0  0  0  0  0
    6.8117    2.9370   -0.7425 F   0  0  0  0  0  0  0  0  0  0  0  0
    5.1351    1.6895   -1.5889 F   0  0  0  0  0  0  0  0  0  0  0  0
    0.5286    1.0414   -1.5320 C   0  0  0  0  0  0  0  0  0  0  0  0
   -0.8698    0.9523   -1.6516 C   0  0  0  0  0  0  0  0  0  0  0  0
   -2.9720   -1.0717    1.4736 C   0  0  0  0  0  0  0  0  0  0  0  0
   -3.3171   -2.3747    1.0054 N   0  0  0  0  0  0  0  0  0  0  0  0
   -2.1675   -0.9524    2.4350 O   0  0  0  0  0  0  0  0  0  0  0  0
   -6.1392    2.2870   -3.3440 H   0  0  0  0  0  0  0  0  0  0  0  0
   -5.7453    0.6664   -2.6567 H   0  0  0  0  0  0  0  0  0  0  0  0
   -6.7437    1.8375   -1.7039 H   0  0  0  0  0  0  0  0  0  0  0  0
   -4.8009    3.4014   -1.5727 H   0  0  0  0  0  0  0  0  0  0  0  0
   -3.7898    2.2742   -2.5210 H   0  0  0  0  0  0  0  0  0  0  0  0
   -4.9999    0.5704    3.5791 H   0  0  0  0  0  0  0  0  0  0  0  0
   -4.8212    2.8396    4.5578 H   0  0  0  0  0  0  0  0  0  0  0  0
   -4.0034    3.5042    2.9217 H   0  0  0  0  0  0  0  0  0  0  0  0
   -2.9965    1.2799    4.8296 H   0  0  0  0  0  0  0  0  0  0  0  0
   -2.1882    1.9408    3.1853 H   0  0  0  0  0  0  0  0  0  0  0  0
   -3.3531    0.0416   -2.5362 H   0  0  0  0  0  0  0  0  0  0  0  0
   -3.3903   -1.4042   -1.5264 H   0  0  0  0  0  0  0  0  0  0  0  0
   -1.2665   -2.4011   -0.9928 H   0  0  0  0  0  0  0  0  0  0  0  0
    3.8515   -3.8110   -1.6915 H   0  0  0  0  0  0  0  0  0  0  0  0
    6.1319   -4.6553   -1.3318 H   0  0  0  0  0  0  0  0  0  0  0  0
    7.7398   -3.3662    0.0382 H   0  0  0  0  0  0  0  0  0  0  0  0
    7.0612   -1.2481    1.0815 H   0  0  0  0  0  0  0  0  0  0  0  0
    3.6622    0.0221    1.2932 H   0  0  0  0  0  0  0  0  0  0  0  0
    1.0420    1.9841   -1.6690 H   0  0  0  0  0  0  0  0  0  0  0  0
   -1.4353    1.8454   -1.8830 H   0  0  0  0  0  0  0  0  0  0  0  0
   -2.8364   -3.2161    1.3941 H   0  0  0  0  0  0  0  0  0  0  0  0
   -4.1106   -2.5126    0.3418 H   0  0  0  0  0  0  0  0  0  0  0  0
  1  2  1  0
  2  3  1  0
  3  4  2  0
  4  5  1  0
  5  6  1  0
  6  7  1  0
  7  8  1  0
  5  9  2  0
  9 10  1  0
 10 11  1  0
 11 12  1  0
 12 13  2  0
 13 14  1  0
 14 15  2  0
 15 16  1  0
 16 17  1  0
 17 18  2  0
 18 19  1  0
 17 20  1  0
 20 21  2  0
 21 22  1  0
 22 23  2  0
 23 24  1  0
 24 25  2  0
 25 26  1  0
 26 27  1  0
 27 28  2  0
 27 29  2  0
 27 30  1  0
 30 31  1  0
 30 32  1  0
 30 33  1  0
 15 34  1  0
 34 35  2  0
  9 36  1  0
 36 37  1  0
 36 38  2  0
 10  3  1  0
 35 12  1  0
  8  6  1  0
 18 14  1  0
 25 20  1  0
  1 39  1  0
  1 40  1  0
  1 41  1  0
  2 42  1  0
  2 43  1  0
  6 44  1  0
  7 45  1  0
  7 46  1  0
  8 47  1  0
  8 48  1  0
 11 49  1  0
 11 50  1  0
 13 51  1  0
 21 52  1  0
 22 53  1  0
 23 54  1  0
 24 55  1  0
 26 56  1  0
 34 57  1  0
 35 58  1  0
 37 59  1  0
 37 60  1  0
M  END
$$$$
