
     RDKit          3D

 67 70  0  0  0  0  0  0  0  0999 V2000
   -2.4545   -2.1139    2.3590 C   0  0  0  0  0  0  0  0  0  0  0  0
   -3.2380   -1.2820    1.3031 C   0  0  0  0  0  0  0  0  0  0  0  0
   -4.4185   -0.6383    2.0691 C   0  0  0  0  0  0  0  0  0  0  0  0
   -3.7991   -2.2453    0.2400 C   0  0  0  0  0  0  0  0  0  0  0  0
   -2.2993   -0.2553    0.6010 C   0  0  0  0  0  0  0  0  0  0  0  0
   -0.9953   -0.6858    0.2449 C   0  0  0  0  0  0  0  0  0  0  0  0
   -0.0749    0.1584   -0.3921 C   0  0  0  0  0  0  0  0  0  0  0  0
   -0.4456    1.4675   -0.6955 C   0  0  0  0  0  0  0  0  0  0  0  0
   -1.7334    1.9080   -0.4197 C   0  0  0  0  0  0  0  0  0  0  0  0
   -2.6758    1.0676    0.1951 C   0  0  0  0  0  0  0  0  0  0  0  0
   -4.0142    1.5716    0.3060 N   0  0  0  0  0  0  0  0  0  0  0  0
   -4.3425    2.6929    1.1778 C   0  0  0  0  0  0  0  0  0  0  0  0
   -5.5466    3.3775    0.5439 C   0  0  0  0  0  0  0  0  0  0  0  0
   -6.1048    2.3809   -0.4648 C   0  0  0  0  0  0  0  0  0  0  0  0
   -4.9466    1.4569   -0.8047 C   0  0  0  0  0  0  0  0  0  0  0  0
    1.2801   -0.3340   -0.7401 C   0  0  0  0  0  0  0  0  0  0  0  0
    2.4069    0.4001   -0.3330 C   0  0  0  0  0  0  0  0  0  0  0  0
    3.7051   -0.0542   -0.6172 C   0  0  0  0  0  0  0  0  0  0  0  0
    3.8645   -1.2571   -1.3219 C   0  0  0  0  0  0  0  0  0  0  0  0
    2.7522   -1.9897   -1.7391 C   0  0  0  0  0  0  0  0  0  0  0  0
    1.4498   -1.5366   -1.4582 C   0  0  0  0  0  0  0  0  0  0  0  0
    0.3063   -2.2265   -1.9009 O   0  0  0  0  0  0  0  0  0  0  0  0
    0.2528   -3.5895   -2.3241 C   0  0  0  0  0  0  0  0  0  0  0  0
    0.2563   -4.5350   -1.1208 C   0  0  0  0  0  0  0  0  0  0  0  0
    1.4784   -4.4785   -0.4379 O   0  0  0  0  0  0  0  0  0  0  0  0
    4.8908    0.7235   -0.1752 C   0  0  0  0  0  0  0  0  0  0  0  0
    6.0008    0.8778   -1.0236 C   0  0  0  0  0  0  0  0  0  0  0  0
    7.1164    1.6104   -0.6083 C   0  0  0  0  0  0  0  0  0  0  0  0
    7.1467    2.2037    0.6654 C   0  0  0  0  0  0  0  0  0  0  0  0
    6.0384    2.0491    1.5142 C   0  0  0  0  0  0  0  0  0  0  0  0
    4.9224    1.3174    1.0984 C   0  0  0  0  0  0  0  0  0  0  0  0
    8.3257    2.9797    1.1094 C   0  0  0  0  0  0  0  0  0  0  0  0
    8.3457    3.5646    2.3731 O   0  0  0  0  0  0  0  0  0  0  0  0
    9.3221    3.1187    0.3494 O   0  0  0  0  0  0  0  0  0  0  0  0
   -1.7672   -2.8507    1.8956 H   0  0  0  0  0  0  0  0  0  0  0  0
   -1.8716   -1.4428    3.0262 H   0  0  0  0  0  0  0  0  0  0  0  0
   -3.1394   -2.7186    2.9923 H   0  0  0  0  0  0  0  0  0  0  0  0
   -5.1986   -0.2452    1.3908 H   0  0  0  0  0  0  0  0  0  0  0  0
   -4.9483   -1.3896    2.6940 H   0  0  0  0  0  0  0  0  0  0  0  0
   -4.0483    0.1563    2.7493 H   0  0  0  0  0  0  0  0  0  0  0  0
   -4.3773   -1.6917   -0.5274 H   0  0  0  0  0  0  0  0  0  0  0  0
   -2.9758   -2.7851   -0.2762 H   0  0  0  0  0  0  0  0  0  0  0  0
   -4.4692   -2.9997    0.7064 H   0  0  0  0  0  0  0  0  0  0  0  0
   -0.6729   -1.6930    0.4554 H   0  0  0  0  0  0  0  0  0  0  0  0
    0.2487    2.1361   -1.1899 H   0  0  0  0  0  0  0  0  0  0  0  0
   -2.0173    2.9086   -0.7220 H   0  0  0  0  0  0  0  0  0  0  0  0
   -4.6018    2.3230    2.1907 H   0  0  0  0  0  0  0  0  0  0  0  0
   -3.4916    3.4043    1.2557 H   0  0  0  0  0  0  0  0  0  0  0  0
   -6.3081    3.6499    1.3066 H   0  0  0  0  0  0  0  0  0  0  0  0
   -5.2163    4.2968    0.0117 H   0  0  0  0  0  0  0  0  0  0  0  0
   -6.4967    2.8933   -1.3700 H   0  0  0  0  0  0  0  0  0  0  0  0
   -6.9221    1.7934    0.0090 H   0  0  0  0  0  0  0  0  0  0  0  0
   -5.2996    0.4124   -0.9213 H   0  0  0  0  0  0  0  0  0  0  0  0
   -4.4560    1.7908   -1.7455 H   0  0  0  0  0  0  0  0  0  0  0  0
    2.2686    1.3286    0.2082 H   0  0  0  0  0  0  0  0  0  0  0  0
    4.8535   -1.6397   -1.5414 H   0  0  0  0  0  0  0  0  0  0  0  0
    2.9241   -2.9015   -2.2908 H   0  0  0  0  0  0  0  0  0  0  0  0
   -0.7030   -3.7373   -2.8694 H   0  0  0  0  0  0  0  0  0  0  0  0
    1.0669   -3.8323   -3.0371 H   0  0  0  0  0  0  0  0  0  0  0  0
   -0.5574   -4.2422   -0.4235 H   0  0  0  0  0  0  0  0  0  0  0  0
    0.0522   -5.5757   -1.4609 H   0  0  0  0  0  0  0  0  0  0  0  0
    2.1277   -5.0033   -0.9751 H   0  0  0  0  0  0  0  0  0  0  0  0
    5.9996    0.4463   -2.0168 H   0  0  0  0  0  0  0  0  0  0  0  0
    7.9538    1.7145   -1.2870 H   0  0  0  0  0  0  0  0  0  0  0  0
    6.0329    2.4906    2.5029 H   0  0  0  0  0  0  0  0  0  0  0  0
    4.0903    1.2012    1.7816 H   0  0  0  0  0  0  0  0  0  0  0  0
    9.1478    4.0979    2.6869 H   0  0  0  0  0  0  0  0  0  0  0  0
  1  2  1  0
  2  3  1  0
  2  4  1  0
  2  5  1  0
  5  6  2  0
  6  7  1  0
  7  8  2  0
  8  9  1  0
  9 10  2  0
 10 11  1  0
 11 12  1  0
 12 13  1  0
 13 14  1  0
 14 15  1  0
  7 16  1  0
 16 17  2  0
 17 18  1  0
 18 19  2  0
 19 20  1  0
 20 21  2  0
 21 22  1  0
 22 23  1  0
 23 24  1  0
 24 25  1  0
 18 26  1  0
 26 27  2  0
 27 28  1  0
 28 29  2  0
 29 30  1  0
 30 31  2  0
 29 32  1  0
 32 33  1  0
 32 34  2  0
 10  5  1  0
 15 11  1  0
 21 16  1  0
 31 26  1  0
  1 35  1  0
  1 36  1  0
  1 37  1  0
  3 38  1  0
  3 39  1  0
  3 40  1  0
  4 41  1  0
  4 42  1  0
  4 43  1  0
  6 44  1  0
  8 45  1  0
  9 46  1  0
 12 47  1  0
 12 48  1  0
 13 49  1  0
 13 50  1  0
 14 51  1  0
 14 52  1  0
 15 53  1  0
 15 54  1  0
 17 55  1  0
 19 56  1  0
 20 57  1  0
 23 58  1  0
 23 59  1  0
 24 60  1  0
 24 61  1  0
 25 62  1  0
 27 63  1  0
 28 64  1  0
 30 65  1  0
 31 66  1  0
 33 67  1  0
M  END
$$$$
