
     RDKit          3D

 30 32  0  0  0  0  0  0  0  0999 V2000
   -4.7173    1.4717   -1.4050 O   0  0  0  0  0  0  0  0  0  0  0  0
   -3.6178    0.7274   -0.9834 C   0  0  0  0  0  0  0  0  0  0  0  0
   -3.7911   -0.5216   -0.3751 C   0  0  0  0  0  0  0  0  0  0  0  0
   -2.6800   -1.2592    0.0436 C   0  0  0  0  0  0  0  0  0  0  0  0
   -1.3775   -0.7643   -0.1506 C   0  0  0  0  0  0  0  0  0  0  0  0
   -1.2152    0.5001   -0.7495 C   0  0  0  0  0  0  0  0  0  0  0  0
   -2.3289    1.2350   -1.1670 C   0  0  0  0  0  0  0  0  0  0  0  0
   -0.1933   -1.5712    0.3503 C   0  0  2  0  0  0  0  0  0  0  0  0
    0.1971   -1.1676    1.7868 C   0  0  0  0  0  0  0  0  0  0  0  0
    1.0463    0.0695    1.7996 C   0  0  0  0  0  0  0  0  0  0  0  0
    0.9685    0.8730    2.7677 O   0  0  0  0  0  0  0  0  0  0  0  0
    2.0198    0.2860    0.7150 C   0  0  0  0  0  0  0  0  0  0  0  0
    3.0204    1.2681    0.8019 C   0  0  0  0  0  0  0  0  0  0  0  0
    3.9462    1.4169   -0.2356 C   0  0  0  0  0  0  0  0  0  0  0  0
    3.8788    0.5890   -1.3601 C   0  0  0  0  0  0  0  0  0  0  0  0
    2.8792   -0.3836   -1.4550 C   0  0  0  0  0  0  0  0  0  0  0  0
    1.9421   -0.5299   -0.4267 C   0  0  0  0  0  0  0  0  0  0  0  0
    0.9208   -1.4823   -0.5498 O   0  0  0  0  0  0  0  0  0  0  0  0
   -5.6643    1.1315   -1.2850 H   0  0  0  0  0  0  0  0  0  0  0  0
   -4.7861   -0.9201   -0.2223 H   0  0  0  0  0  0  0  0  0  0  0  0
   -2.8369   -2.2178    0.5226 H   0  0  0  0  0  0  0  0  0  0  0  0
   -0.2348    0.9275   -0.8974 H   0  0  0  0  0  0  0  0  0  0  0  0
   -2.1897    2.2033   -1.6308 H   0  0  0  0  0  0  0  0  0  0  0  0
   -0.4946   -2.6415    0.3778 H   0  0  0  0  0  0  0  0  0  0  0  0
   -0.7134   -1.0184    2.4082 H   0  0  0  0  0  0  0  0  0  0  0  0
    0.7864   -1.9908    2.2448 H   0  0  0  0  0  0  0  0  0  0  0  0
    3.0932    1.9089    1.6717 H   0  0  0  0  0  0  0  0  0  0  0  0
    4.7197    2.1708   -0.1656 H   0  0  0  0  0  0  0  0  0  0  0  0
    4.5986    0.7043   -2.1601 H   0  0  0  0  0  0  0  0  0  0  0  0
    2.8239   -1.0148   -2.3327 H   0  0  0  0  0  0  0  0  0  0  0  0
  1  2  1  0
  2  3  2  0
  3  4  1  0
  4  5  2  0
  5  6  1  0
  6  7  2  0
  5  8  1  0
  8  9  1  0
  9 10  1  0
 10 11  2  0
 10 12  1  0
 12 13  2  0
 13 14  1  0
 14 15  2  0
 15 16  1  0
 16 17  2  0
 17 18  1  0
  7  2  1  0
 18  8  1  0
 17 12  1  0
  1 19  1  0
  3 20  1  0
  4 21  1  0
  6 22  1  0
  7 23  1  0
  8 24  1  1
  9 25  1  0
  9 26  1  0
 13 27  1  0
 14 28  1  0
 15 29  1  0
 16 30  1  0
M  END
$$$$
