
     RDKit          3D

 46 48  0  0  0  0  0  0  0  0999 V2000
   -2.2441   -0.1262    4.7446 C   0  0  0  0  0  0  0  0  0  0  0  0
   -1.7806   -0.9421    3.6737 O   0  0  0  0  0  0  0  0  0  0  0  0
   -2.0867   -0.7245    2.3221 C   0  0  0  0  0  0  0  0  0  0  0  0
   -1.5564   -1.6023    1.3720 C   0  0  0  0  0  0  0  0  0  0  0  0
   -1.8271   -1.4340    0.0040 C   0  0  0  0  0  0  0  0  0  0  0  0
   -1.1993   -2.3648   -1.0048 C   0  0  0  0  0  0  0  0  0  0  0  0
   -0.1409   -1.6688   -1.7532 N   0  0  0  0  0  0  0  0  0  0  0  0
   -0.2065   -1.5836   -3.2157 C   0  0  0  0  0  0  0  0  0  0  0  0
    0.9608   -1.0507   -1.0550 C   0  0  0  0  0  0  0  0  0  0  0  0
    1.6531   -1.7551   -0.0583 C   0  0  0  0  0  0  0  0  0  0  0  0
    2.6971   -1.1502    0.6403 C   0  0  0  0  0  0  0  0  0  0  0  0
    3.0674    0.1660    0.3532 C   0  0  0  0  0  0  0  0  0  0  0  0
    4.0789    0.7421    1.0509 N   0  0  0  0  0  0  0  0  0  0  0  0
    4.4624    2.0190    0.8048 C   0  0  0  0  0  0  0  0  0  0  0  0
    5.5266    2.6011    1.5538 N   0  0  0  0  0  0  0  0  0  0  0  0
    3.8337    2.7419   -0.1560 N   0  0  0  0  0  0  0  0  0  0  0  0
    2.8149    2.2262   -0.8949 C   0  0  0  0  0  0  0  0  0  0  0  0
    2.2203    3.0613   -1.8969 N   0  0  0  0  0  0  0  0  0  0  0  0
    2.3909    0.8957   -0.6526 C   0  0  0  0  0  0  0  0  0  0  0  0
    1.3325    0.2737   -1.3476 C   0  0  0  0  0  0  0  0  0  0  0  0
   -2.6331   -0.3600   -0.4219 C   0  0  0  0  0  0  0  0  0  0  0  0
   -2.8739   -0.1953   -1.7960 O   0  0  0  0  0  0  0  0  0  0  0  0
   -3.6321    0.8678   -2.3625 C   0  0  0  0  0  0  0  0  0  0  0  0
   -3.1694    0.5201    0.5368 C   0  0  0  0  0  0  0  0  0  0  0  0
   -2.8997    0.3394    1.8950 C   0  0  0  0  0  0  0  0  0  0  0  0
   -1.8497   -0.5254    5.7014 H   0  0  0  0  0  0  0  0  0  0  0  0
   -3.3538   -0.1411    4.7835 H   0  0  0  0  0  0  0  0  0  0  0  0
   -1.8797    0.9150    4.6166 H   0  0  0  0  0  0  0  0  0  0  0  0
   -0.9227   -2.4154    1.7047 H   0  0  0  0  0  0  0  0  0  0  0  0
   -1.9956   -2.7343   -1.6864 H   0  0  0  0  0  0  0  0  0  0  0  0
   -0.7781   -3.2664   -0.5117 H   0  0  0  0  0  0  0  0  0  0  0  0
   -0.9552   -2.2907   -3.6304 H   0  0  0  0  0  0  0  0  0  0  0  0
   -0.4903   -0.5565   -3.5247 H   0  0  0  0  0  0  0  0  0  0  0  0
    0.7820   -1.8402   -3.6522 H   0  0  0  0  0  0  0  0  0  0  0  0
    1.3918   -2.7783    0.1756 H   0  0  0  0  0  0  0  0  0  0  0  0
    3.2187   -1.7080    1.4084 H   0  0  0  0  0  0  0  0  0  0  0  0
    6.0150    2.0502    2.2942 H   0  0  0  0  0  0  0  0  0  0  0  0
    5.8273    3.5838    1.3689 H   0  0  0  0  0  0  0  0  0  0  0  0
    1.4942    2.7350   -2.5676 H   0  0  0  0  0  0  0  0  0  0  0  0
    2.5520    4.0457   -2.0040 H   0  0  0  0  0  0  0  0  0  0  0  0
    0.7647    0.8040   -2.0933 H   0  0  0  0  0  0  0  0  0  0  0  0
   -4.6774    0.8325   -1.9895 H   0  0  0  0  0  0  0  0  0  0  0  0
   -3.6445    0.7551   -3.4658 H   0  0  0  0  0  0  0  0  0  0  0  0
   -3.1673    1.8443   -2.1102 H   0  0  0  0  0  0  0  0  0  0  0  0
   -3.7944    1.3518    0.2422 H   0  0  0  0  0  0  0  0  0  0  0  0
   -3.3257    1.0356    2.6045 H   0  0  0  0  0  0  0  0  0  0  0  0
  1  2  1  0
  2  3  1  0
  3  4  2  0
  4  5  1  0
  5  6  1  0
  6  7  1  0
  7  8  1  0
  7  9  1  0
  9 10  2  0
 10 11  1  0
 11 12  2  0
 12 13  1  0
 13 14  2  0
 14 15  1  0
 14 16  1  0
 16 17  2  0
 17 18  1  0
 17 19  1  0
 19 20  2  0
  5 21  2  0
 21 22  1  0
 22 23  1  0
 21 24  1  0
 24 25  2  0
 25  3  1  0
 20  9  1  0
 19 12  1  0
  1 26  1  0
  1 27  1  0
  1 28  1  0
  4 29  1  0
  6 30  1  0
  6 31  1  0
  8 32  1  0
  8 33  1  0
  8 34  1  0
 10 35  1  0
 11 36  1  0
 15 37  1  0
 15 38  1  0
 18 39  1  0
 18 40  1  0
 20 41  1  0
 23 42  1  0
 23 43  1  0
 23 44  1  0
 24 45  1  0
 25 46  1  0
M  END
$$$$
