
     RDKit          3D

 71 74  0  0  0  0  0  0  0  0999 V2000
    5.4459   -2.9549    0.7744 C   0  0  0  0  0  0  0  0  0  0  0  0
    5.8486   -2.0978   -0.4157 C   0  0  0  0  0  0  0  0  0  0  0  0
    5.7581   -0.7348   -0.0580 O   0  0  0  0  0  0  0  0  0  0  0  0
    6.0298    0.0913   -1.1754 C   0  0  0  0  0  0  0  0  0  0  0  0
    4.7283    0.5879   -1.8107 C   0  0  0  0  0  0  0  0  0  0  0  0
    3.9324    1.3486   -0.8405 N   0  0  0  0  0  0  0  0  0  0  0  0
    2.8924    0.9240   -0.0661 C   0  0  0  0  0  0  0  0  0  0  0  0
    2.3868    1.9046    0.7309 N   0  0  0  0  0  0  0  0  0  0  0  0
    3.1703    2.9612    0.4560 C   0  0  0  0  0  0  0  0  0  0  0  0
    3.0962    4.2375    1.0085 C   0  0  0  0  0  0  0  0  0  0  0  0
    4.0260    5.1972    0.5672 C   0  0  0  0  0  0  0  0  0  0  0  0
    4.9942    4.8604   -0.4056 C   0  0  0  0  0  0  0  0  0  0  0  0
    5.0400    3.5617   -0.9459 C   0  0  0  0  0  0  0  0  0  0  0  0
    4.1023    2.6342   -0.4843 C   0  0  0  0  0  0  0  0  0  0  0  0
    2.2681   -0.4515   -0.1472 C   0  0  0  0  0  0  0  0  0  0  0  0
    1.1459   -0.4514   -1.2068 C   0  0  0  0  0  0  0  0  0  0  0  0
    0.1412   -1.5754   -0.9307 C   0  0  0  0  0  0  0  0  0  0  0  0
   -0.5542   -1.4006    0.3739 N   0  0  0  0  0  0  0  0  0  0  0  0
   -1.0754   -2.6891    0.8866 C   0  0  0  0  0  0  0  0  0  0  0  0
   -2.2737   -3.1862    0.0631 C   0  0  0  0  0  0  0  0  0  0  0  0
   -3.4109   -2.1965    0.0938 C   0  0  0  0  0  0  0  0  0  0  0  0
   -3.6438   -1.3435   -0.9924 C   0  0  0  0  0  0  0  0  0  0  0  0
   -4.6743   -0.4024   -0.9436 C   0  0  0  0  0  0  0  0  0  0  0  0
   -5.4913   -0.2743    0.2007 C   0  0  0  0  0  0  0  0  0  0  0  0
   -5.2589   -1.1555    1.2811 C   0  0  0  0  0  0  0  0  0  0  0  0
   -4.2262   -2.0957    1.2287 C   0  0  0  0  0  0  0  0  0  0  0  0
   -6.6335    0.7567    0.1984 C   0  0  0  0  0  0  0  0  0  0  0  0
   -7.2612    0.9750    1.5930 C   0  0  0  0  0  0  0  0  0  0  0  0
   -7.7373    0.2531   -0.7579 C   0  0  0  0  0  0  0  0  0  0  0  0
   -6.0960    2.1029   -0.2554 C   0  0  0  0  0  0  0  0  0  0  0  0
   -4.8984    2.5796    0.2729 O   0  0  0  0  0  0  0  0  0  0  0  0
   -6.7447    2.8225   -1.0636 O   0  0  0  0  0  0  0  0  0  0  0  0
    0.2562   -0.6877    1.3981 C   0  0  0  0  0  0  0  0  0  0  0  0
    1.7618   -0.9385    1.2337 C   0  0  0  0  0  0  0  0  0  0  0  0
    4.4027   -2.7246    1.0752 H   0  0  0  0  0  0  0  0  0  0  0  0
    6.1232   -2.7564    1.6319 H   0  0  0  0  0  0  0  0  0  0  0  0
    5.5130   -4.0296    0.5031 H   0  0  0  0  0  0  0  0  0  0  0  0
    5.1691   -2.3351   -1.2657 H   0  0  0  0  0  0  0  0  0  0  0  0
    6.8953   -2.3570   -0.6934 H   0  0  0  0  0  0  0  0  0  0  0  0
    6.6624   -0.3974   -1.9545 H   0  0  0  0  0  0  0  0  0  0  0  0
    6.6085    0.9695   -0.8194 H   0  0  0  0  0  0  0  0  0  0  0  0
    4.1487   -0.2665   -2.2153 H   0  0  0  0  0  0  0  0  0  0  0  0
    4.9726    1.2362   -2.6792 H   0  0  0  0  0  0  0  0  0  0  0  0
    2.3498    4.4835    1.7527 H   0  0  0  0  0  0  0  0  0  0  0  0
    3.9991    6.1991    0.9752 H   0  0  0  0  0  0  0  0  0  0  0  0
    5.7046    5.6060   -0.7380 H   0  0  0  0  0  0  0  0  0  0  0  0
    5.7792    3.3004   -1.6911 H   0  0  0  0  0  0  0  0  0  0  0  0
    3.0436   -1.1769   -0.4659 H   0  0  0  0  0  0  0  0  0  0  0  0
    1.5867   -0.5857   -2.2185 H   0  0  0  0  0  0  0  0  0  0  0  0
    0.5972    0.5173   -1.2034 H   0  0  0  0  0  0  0  0  0  0  0  0
    0.6839   -2.5471   -0.9774 H   0  0  0  0  0  0  0  0  0  0  0  0
   -0.6106   -1.5708   -1.7467 H   0  0  0  0  0  0  0  0  0  0  0  0
   -0.2770   -3.4643    0.8943 H   0  0  0  0  0  0  0  0  0  0  0  0
   -1.4274   -2.5829    1.9369 H   0  0  0  0  0  0  0  0  0  0  0  0
   -2.6221   -4.1529    0.4877 H   0  0  0  0  0  0  0  0  0  0  0  0
   -1.9622   -3.3991   -0.9819 H   0  0  0  0  0  0  0  0  0  0  0  0
   -3.0315   -1.4073   -1.8825 H   0  0  0  0  0  0  0  0  0  0  0  0
   -4.8337    0.2333   -1.8056 H   0  0  0  0  0  0  0  0  0  0  0  0
   -5.8624   -1.1302    2.1760 H   0  0  0  0  0  0  0  0  0  0  0  0
   -4.0611   -2.7481    2.0775 H   0  0  0  0  0  0  0  0  0  0  0  0
   -8.0100    1.7967    1.5596 H   0  0  0  0  0  0  0  0  0  0  0  0
   -6.4824    1.2517    2.3366 H   0  0  0  0  0  0  0  0  0  0  0  0
   -7.7911    0.0628    1.9423 H   0  0  0  0  0  0  0  0  0  0  0  0
   -7.3564    0.1755   -1.7990 H   0  0  0  0  0  0  0  0  0  0  0  0
   -8.0940   -0.7515   -0.4425 H   0  0  0  0  0  0  0  0  0  0  0  0
   -8.6082    0.9441   -0.7588 H   0  0  0  0  0  0  0  0  0  0  0  0
   -4.5316    3.4828   -0.0023 H   0  0  0  0  0  0  0  0  0  0  0  0
    0.0596    0.4019    1.3053 H   0  0  0  0  0  0  0  0  0  0  0  0
   -0.0441   -0.9560    2.4346 H   0  0  0  0  0  0  0  0  0  0  0  0
    1.9413   -2.0321    1.3279 H   0  0  0  0  0  0  0  0  0  0  0  0
    2.3208   -0.4520    2.0630 H   0  0  0  0  0  0  0  0  0  0  0  0
  1  2  1  0
  2  3  1  0
  3  4  1  0
  4  5  1  0
  5  6  1  0
  6  7  1  0
  7  8  2  0
  8  9  1  0
  9 10  2  0
 10 11  1  0
 11 12  2  0
 12 13  1  0
 13 14  2  0
  7 15  1  0
 15 16  1  0
 16 17  1  0
 17 18  1  0
 18 19  1  0
 19 20  1  0
 20 21  1  0
 21 22  2  0
 22 23  1  0
 23 24  2  0
 24 25  1  0
 25 26  2  0
 24 27  1  0
 27 28  1  0
 27 29  1  0
 27 30  1  0
 30 31  1  0
 30 32  2  0
 18 33  1  0
 33 34  1  0
 14  6  1  0
 34 15  1  0
 14  9  1  0
 26 21  1  0
  1 35  1  0
  1 36  1  0
  1 37  1  0
  2 38  1  0
  2 39  1  0
  4 40  1  0
  4 41  1  0
  5 42  1  0
  5 43  1  0
 10 44  1  0
 11 45  1  0
 12 46  1  0
 13 47  1  0
 15 48  1  0
 16 49  1  0
 16 50  1  0
 17 51  1  0
 17 52  1  0
 19 53  1  0
 19 54  1  0
 20 55  1  0
 20 56  1  0
 22 57  1  0
 23 58  1  0
 25 59  1  0
 26 60  1  0
 28 61  1  0
 28 62  1  0
 28 63  1  0
 29 64  1  0
 29 65  1  0
 29 66  1  0
 31 67  1  0
 33 68  1  0
 33 69  1  0
 34 70  1  0
 34 71  1  0
M  END
$$$$
