
     RDKit          3D

 45 48  0  0  0  0  0  0  0  0999 V2000
    6.8488   -1.2280   -0.0802 C   0  0  0  0  0  0  0  0  0  0  0  0
    5.8298   -1.6357    0.9332 C   0  0  0  0  0  0  0  0  0  0  0  0
    6.2040   -1.9354    2.0991 O   0  0  0  0  0  0  0  0  0  0  0  0
    4.4338   -1.5912    0.6001 N   0  0  0  0  0  0  0  0  0  0  0  0
    3.3881   -2.1295    1.4280 C   0  0  0  0  0  0  0  0  0  0  0  0
    3.5848   -3.2899    2.1972 C   0  0  0  0  0  0  0  0  0  0  0  0
    2.5492   -3.7949    2.9867 C   0  0  0  0  0  0  0  0  0  0  0  0
    1.3034   -3.1640    2.9988 C   0  0  0  0  0  0  0  0  0  0  0  0
    1.0731   -2.0343    2.2015 C   0  0  0  0  0  0  0  0  0  0  0  0
   -0.2161   -1.3987    2.2352 N   0  0  0  0  0  0  0  0  0  0  0  0
   -0.8398   -0.7822    1.0997 C   0  0  0  0  0  0  0  0  0  0  0  0
   -0.3523   -0.9892   -0.1601 N   0  0  0  0  0  0  0  0  0  0  0  0
   -0.9969   -0.4088   -1.1979 C   0  0  0  0  0  0  0  0  0  0  0  0
   -0.7283   -0.5051   -2.5384 C   0  0  0  0  0  0  0  0  0  0  0  0
   -1.7448    0.2284   -3.1395 C   0  0  0  0  0  0  0  0  0  0  0  0
   -2.5704    0.7299   -2.1871 N   0  0  0  0  0  0  0  0  0  0  0  0
   -2.0867    0.3383   -1.0183 N   0  0  0  0  0  0  0  0  0  0  0  0
   -2.5919    0.5604    0.2219 C   0  0  0  0  0  0  0  0  0  0  0  0
   -3.7826    1.3328    0.4311 N   0  0  0  0  0  0  0  0  0  0  0  0
   -4.0905    2.5465   -0.2746 C   0  0  0  0  0  0  0  0  0  0  0  0
   -5.4295    2.9444   -0.4109 C   0  0  0  0  0  0  0  0  0  0  0  0
   -5.7499    4.1340   -1.0725 C   0  0  0  0  0  0  0  0  0  0  0  0
   -4.7348    4.9427   -1.5904 C   0  0  0  0  0  0  0  0  0  0  0  0
   -3.3974    4.5666   -1.4408 C   0  0  0  0  0  0  0  0  0  0  0  0
   -3.0731    3.3780   -0.7796 C   0  0  0  0  0  0  0  0  0  0  0  0
   -1.9665   -0.0258    1.2811 N   0  0  0  0  0  0  0  0  0  0  0  0
    0.3353   -1.2280   -3.1803 C   0  0  0  0  0  0  0  0  0  0  0  0
    1.1921   -1.8100   -3.6961 N   0  0  0  0  0  0  0  0  0  0  0  0
    2.1270   -1.5137    1.4284 C   0  0  0  0  0  0  0  0  0  0  0  0
    6.5528   -1.5982   -1.0842 H   0  0  0  0  0  0  0  0  0  0  0  0
    7.8417   -1.6539    0.1772 H   0  0  0  0  0  0  0  0  0  0  0  0
    6.9221   -0.1210   -0.1057 H   0  0  0  0  0  0  0  0  0  0  0  0
    4.1574   -1.0633   -0.2589 H   0  0  0  0  0  0  0  0  0  0  0  0
    4.5291   -3.8170    2.1760 H   0  0  0  0  0  0  0  0  0  0  0  0
    2.7100   -4.6827    3.5846 H   0  0  0  0  0  0  0  0  0  0  0  0
    0.5091   -3.5672    3.6144 H   0  0  0  0  0  0  0  0  0  0  0  0
   -0.7739   -1.4617    3.1170 H   0  0  0  0  0  0  0  0  0  0  0  0
   -1.8822    0.3778   -4.2022 H   0  0  0  0  0  0  0  0  0  0  0  0
   -4.4312    1.0245    1.1903 H   0  0  0  0  0  0  0  0  0  0  0  0
   -6.2243    2.3269   -0.0118 H   0  0  0  0  0  0  0  0  0  0  0  0
   -6.7852    4.4299   -1.1819 H   0  0  0  0  0  0  0  0  0  0  0  0
   -4.9841    5.8638   -2.1011 H   0  0  0  0  0  0  0  0  0  0  0  0
   -2.6113    5.1996   -1.8317 H   0  0  0  0  0  0  0  0  0  0  0  0
   -2.0309    3.1148   -0.6532 H   0  0  0  0  0  0  0  0  0  0  0  0
    1.9832   -0.6099    0.8506 H   0  0  0  0  0  0  0  0  0  0  0  0
  1  2  1  0
  2  3  2  0
  2  4  1  0
  4  5  1  0
  5  6  2  0
  6  7  1  0
  7  8  2  0
  8  9  1  0
  9 10  1  0
 10 11  1  0
 11 12  2  0
 12 13  1  0
 13 14  2  0
 14 15  1  0
 15 16  2  0
 16 17  1  0
 17 18  1  0
 18 19  1  0
 19 20  1  0
 20 21  2  0
 21 22  1  0
 22 23  2  0
 23 24  1  0
 24 25  2  0
 18 26  2  0
 14 27  1  0
 27 28  3  0
  9 29  2  0
 29  5  1  0
 26 11  1  0
 17 13  1  0
 25 20  1  0
  1 30  1  0
  1 31  1  0
  1 32  1  0
  4 33  1  0
  6 34  1  0
  7 35  1  0
  8 36  1  0
 10 37  1  0
 15 38  1  0
 19 39  1  0
 21 40  1  0
 22 41  1  0
 23 42  1  0
 24 43  1  0
 25 44  1  0
 29 45  1  0
M  END
$$$$
