
     RDKit          3D

 48 49  0  0  0  0  0  0  0  0999 V2000
   -0.6396   -0.2971   -0.0003 C   0  0  0  0  0  0  0  0  0  0  0  0
   -0.7556    1.2376    0.0763 C   0  0  0  0  0  0  0  0  0  0  0  0
   -1.0715    1.8176   -1.3357 C   0  0  0  0  0  0  0  0  0  0  0  0
   -2.5712    2.0691   -1.5765 C   0  0  0  0  0  0  0  0  0  0  0  0
   -3.3720    0.7955   -1.6432 C   0  0  0  0  0  0  0  0  0  0  0  0
   -4.1640    0.3937   -0.5538 C   0  0  0  0  0  0  0  0  0  0  0  0
   -4.8830   -0.8042   -0.6104 C   0  0  0  0  0  0  0  0  0  0  0  0
   -4.8163   -1.6084   -1.7514 C   0  0  0  0  0  0  0  0  0  0  0  0
   -4.0299   -1.2163   -2.8382 C   0  0  0  0  0  0  0  0  0  0  0  0
   -3.3090   -0.0194   -2.7860 C   0  0  0  0  0  0  0  0  0  0  0  0
    0.5133    1.7907    0.5953 N   0  0  0  0  0  0  0  0  0  0  0  0
    0.6280    1.6802    2.0618 C   0  0  0  0  0  0  0  0  0  0  0  0
    2.0768    1.3438    2.4433 C   0  0  0  0  0  0  0  0  0  0  0  0
    2.2225    1.3539    3.8406 O   0  0  0  0  0  0  0  0  0  0  0  0
    2.4546   -0.0168    1.8989 C   0  0  0  0  0  0  0  0  0  0  0  0
    3.1124   -0.1201    0.6627 C   0  0  0  0  0  0  0  0  0  0  0  0
    3.4000   -1.3748    0.0980 C   0  0  0  0  0  0  0  0  0  0  0  0
    4.1280   -1.4257   -1.1880 C   0  0  0  0  0  0  0  0  0  0  0  0
    3.7809   -0.5406   -2.2546 N   0  0  0  0  0  0  0  0  0  0  0  0
    5.0855   -2.2303   -1.3408 O   0  0  0  0  0  0  0  0  0  0  0  0
    2.9986   -2.5471    0.7822 C   0  0  0  0  0  0  0  0  0  0  0  0
    3.1935   -3.8256    0.2549 O   0  0  0  0  0  0  0  0  0  0  0  0
    2.3502   -2.4398    2.0167 C   0  0  0  0  0  0  0  0  0  0  0  0
    2.0691   -1.1892    2.5670 C   0  0  0  0  0  0  0  0  0  0  0  0
    0.2417   -0.5858   -0.6126 H   0  0  0  0  0  0  0  0  0  0  0  0
   -1.5439   -0.7492   -0.4511 H   0  0  0  0  0  0  0  0  0  0  0  0
   -0.5223   -0.7399    1.0091 H   0  0  0  0  0  0  0  0  0  0  0  0
   -1.5877    1.5030    0.7686 H   0  0  0  0  0  0  0  0  0  0  0  0
   -0.6636    1.1621   -2.1370 H   0  0  0  0  0  0  0  0  0  0  0  0
   -0.5708    2.7997   -1.4725 H   0  0  0  0  0  0  0  0  0  0  0  0
   -2.6900    2.6125   -2.5394 H   0  0  0  0  0  0  0  0  0  0  0  0
   -2.9684    2.7431   -0.7859 H   0  0  0  0  0  0  0  0  0  0  0  0
   -4.2184    1.0020    0.3404 H   0  0  0  0  0  0  0  0  0  0  0  0
   -5.4898   -1.1107    0.2318 H   0  0  0  0  0  0  0  0  0  0  0  0
   -5.3725   -2.5359   -1.7929 H   0  0  0  0  0  0  0  0  0  0  0  0
   -3.9771   -1.8411   -3.7204 H   0  0  0  0  0  0  0  0  0  0  0  0
   -2.6983    0.2706   -3.6321 H   0  0  0  0  0  0  0  0  0  0  0  0
    0.5876    2.8091    0.3648 H   0  0  0  0  0  0  0  0  0  0  0  0
   -0.0456    0.9038    2.4868 H   0  0  0  0  0  0  0  0  0  0  0  0
    0.3367    2.6449    2.5365 H   0  0  0  0  0  0  0  0  0  0  0  0
    2.7526    2.1162    2.0050 H   0  0  0  0  0  0  0  0  0  0  0  0
    2.2249    2.3056    4.1240 H   0  0  0  0  0  0  0  0  0  0  0  0
    3.4073    0.7835    0.1421 H   0  0  0  0  0  0  0  0  0  0  0  0
    4.3243   -0.5538   -3.1460 H   0  0  0  0  0  0  0  0  0  0  0  0
    2.9587    0.0986   -2.1770 H   0  0  0  0  0  0  0  0  0  0  0  0
    3.5423   -3.9945   -0.6789 H   0  0  0  0  0  0  0  0  0  0  0  0
    2.0364   -3.3341    2.5402 H   0  0  0  0  0  0  0  0  0  0  0  0
    1.5343   -1.1363    3.5070 H   0  0  0  0  0  0  0  0  0  0  0  0
  1  2  1  0
  2  3  1  0
  3  4  1  0
  4  5  1  0
  5  6  2  0
  6  7  1  0
  7  8  2  0
  8  9  1  0
  9 10  2  0
  2 11  1  0
 11 12  1  0
 12 13  1  0
 13 14  1  0
 13 15  1  0
 15 16  2  0
 16 17  1  0
 17 18  1  0
 18 19  1  0
 18 20  2  0
 17 21  2  0
 21 22  1  0
 21 23  1  0
 23 24  2  0
 10  5  1  0
 24 15  1  0
  1 25  1  0
  1 26  1  0
  1 27  1  0
  2 28  1  0
  3 29  1  0
  3 30  1  0
  4 31  1  0
  4 32  1  0
  6 33  1  0
  7 34  1  0
  8 35  1  0
  9 36  1  0
 10 37  1  0
 11 38  1  0
 12 39  1  0
 12 40  1  0
 13 41  1  0
 14 42  1  0
 16 43  1  0
 19 44  1  0
 19 45  1  0
 22 46  1  0
 23 47  1  0
 24 48  1  0
M  END
$$$$
