
     RDKit          3D

 90 89  0  0  0  0  0  0  0  0999 V2000
   10.5113    2.6485   -3.4509 C   0  0  0  0  0  0  0  0  0  0  0  0
   10.0988    3.8767   -2.6399 C   0  0  0  0  0  0  0  0  0  0  0  0
    9.0348    3.5580   -1.5783 C   0  0  0  0  0  0  0  0  0  0  0  0
    7.6607    3.2541   -2.1928 C   0  0  0  0  0  0  0  0  0  0  0  0
    6.6033    3.0595   -1.1003 C   0  0  0  0  0  0  0  0  0  0  0  0
    5.2625    2.7323   -1.7062 C   0  0  0  0  0  0  0  0  0  0  0  0
    4.8456    1.4898   -2.0142 C   0  0  0  0  0  0  0  0  0  0  0  0
    5.6260    0.2290   -1.7339 C   0  0  0  0  0  0  0  0  0  0  0  0
    5.5698   -0.1416   -0.2759 C   0  0  0  0  0  0  0  0  0  0  0  0
    4.4775   -0.5955    0.3547 C   0  0  0  0  0  0  0  0  0  0  0  0
    3.1738   -0.8141   -0.3040 C   0  0  0  0  0  0  0  0  0  0  0  0
    2.1150   -1.2226    0.3982 C   0  0  0  0  0  0  0  0  0  0  0  0
    0.8140   -1.4448   -0.2534 C   0  0  0  0  0  0  0  0  0  0  0  0
   -0.2473   -1.8488    0.4523 C   0  0  0  0  0  0  0  0  0  0  0  0
   -1.6047   -2.0910   -0.1632 C   0  0  1  0  0  0  0  0  0  0  0  0
   -2.1712   -0.5916   -1.0629 S   0  0  0  0  0  0  0  0  0  0  0  0
   -2.7270    0.3644    0.4000 C   0  0  0  0  0  0  0  0  0  0  0  0
   -4.2570    0.3144    0.5498 C   0  0  2  0  0  0  0  0  0  0  0  0
   -4.7018    1.2865    1.5533 N   0  0  0  0  0  0  0  0  0  0  0  0
   -6.0748    1.6882    1.6673 C   0  0  0  0  0  0  0  0  0  0  0  0
   -6.9500    1.1851    0.9114 O   0  0  0  0  0  0  0  0  0  0  0  0
   -6.4756    2.7407    2.6596 C   0  0  0  0  0  0  0  0  0  0  0  0
   -6.6387    4.1188    1.9980 C   0  0  0  0  0  0  0  0  0  0  0  0
   -5.3314    4.6977    1.4125 C   0  0  2  0  0  0  0  0  0  0  0  0
   -4.3908    5.0481    2.4804 N   0  0  0  0  0  0  0  0  0  0  0  0
   -5.6521    5.9200    0.5972 C   0  0  0  0  0  0  0  0  0  0  0  0
   -5.5925    5.8601   -0.7917 O   0  0  0  0  0  0  0  0  0  0  0  0
   -6.0011    6.9902    1.1652 O   0  0  0  0  0  0  0  0  0  0  0  0
   -4.7096   -1.0676    0.9421 C   0  0  0  0  0  0  0  0  0  0  0  0
   -4.6313   -1.4313    2.1478 O   0  0  0  0  0  0  0  0  0  0  0  0
   -5.1658   -1.9876   -0.0602 N   0  0  0  0  0  0  0  0  0  0  0  0
   -5.5123   -3.3717    0.2491 C   0  0  0  0  0  0  0  0  0  0  0  0
   -6.8218   -3.4272    0.9672 C   0  0  0  0  0  0  0  0  0  0  0  0
   -6.8529   -3.6602    2.3384 O   0  0  0  0  0  0  0  0  0  0  0  0
   -7.8950   -3.2349    0.3358 O   0  0  0  0  0  0  0  0  0  0  0  0
   -1.6640   -3.3191   -1.1060 C   0  0  1  0  0  0  0  0  0  0  0  0
   -0.6905   -3.2299   -2.1153 O   0  0  0  0  0  0  0  0  0  0  0  0
   -1.5819   -4.6783   -0.3692 C   0  0  0  0  0  0  0  0  0  0  0  0
   -0.1769   -5.0409    0.1499 C   0  0  0  0  0  0  0  0  0  0  0  0
   -0.0929   -6.5013    0.6138 C   0  0  0  0  0  0  0  0  0  0  0  0
   -0.9397   -6.7474    1.8247 C   0  0  0  0  0  0  0  0  0  0  0  0
   -2.2103   -7.2962    1.6828 O   0  0  0  0  0  0  0  0  0  0  0  0
   -0.5160   -6.4263    2.9672 O   0  0  0  0  0  0  0  0  0  0  0  0
   10.8317    1.8263   -2.7763 H   0  0  0  0  0  0  0  0  0  0  0  0
   11.3624    2.9132   -4.1131 H   0  0  0  0  0  0  0  0  0  0  0  0
    9.6741    2.2988   -4.0895 H   0  0  0  0  0  0  0  0  0  0  0  0
   11.0009    4.2717   -2.1243 H   0  0  0  0  0  0  0  0  0  0  0  0
    9.7301    4.6701   -3.3259 H   0  0  0  0  0  0  0  0  0  0  0  0
    8.9417    4.4420   -0.9100 H   0  0  0  0  0  0  0  0  0  0  0  0
    9.3697    2.6990   -0.9562 H   0  0  0  0  0  0  0  0  0  0  0  0
    7.7246    2.3347   -2.8109 H   0  0  0  0  0  0  0  0  0  0  0  0
    7.3537    4.0974   -2.8502 H   0  0  0  0  0  0  0  0  0  0  0  0
    6.9211    2.2742   -0.3841 H   0  0  0  0  0  0  0  0  0  0  0  0
    6.5011    4.0053   -0.5253 H   0  0  0  0  0  0  0  0  0  0  0  0
    4.6056    3.5643   -1.9436 H   0  0  0  0  0  0  0  0  0  0  0  0
    3.8757    1.3845   -2.4912 H   0  0  0  0  0  0  0  0  0  0  0  0
    6.6835    0.3597   -2.0431 H   0  0  0  0  0  0  0  0  0  0  0  0
    5.2210   -0.6057   -2.3445 H   0  0  0  0  0  0  0  0  0  0  0  0
    6.4825   -0.0442    0.2994 H   0  0  0  0  0  0  0  0  0  0  0  0
    4.5655   -0.8208    1.4115 H   0  0  0  0  0  0  0  0  0  0  0  0
    3.0678   -0.6495   -1.3684 H   0  0  0  0  0  0  0  0  0  0  0  0
    2.2090   -1.3948    1.4651 H   0  0  0  0  0  0  0  0  0  0  0  0
    0.7209   -1.2677   -1.3181 H   0  0  0  0  0  0  0  0  0  0  0  0
   -0.1515   -1.9892    1.5232 H   0  0  0  0  0  0  0  0  0  0  0  0
   -2.3155   -2.2879    0.6657 H   0  0  0  0  0  0  0  0  0  0  0  0
   -2.4212    1.4190    0.2315 H   0  0  0  0  0  0  0  0  0  0  0  0
   -2.2266    0.0236    1.3320 H   0  0  0  0  0  0  0  0  0  0  0  0
   -4.7056    0.5919   -0.4299 H   0  0  0  0  0  0  0  0  0  0  0  0
   -4.0022    1.7115    2.2037 H   0  0  0  0  0  0  0  0  0  0  0  0
   -5.7451    2.7874    3.4936 H   0  0  0  0  0  0  0  0  0  0  0  0
   -7.4493    2.4481    3.1090 H   0  0  0  0  0  0  0  0  0  0  0  0
   -7.0439    4.8265    2.7545 H   0  0  0  0  0  0  0  0  0  0  0  0
   -7.3999    4.0308    1.1902 H   0  0  0  0  0  0  0  0  0  0  0  0
   -4.8590    3.9508    0.7360 H   0  0  0  0  0  0  0  0  0  0  0  0
   -3.5614    5.5198    2.0504 H   0  0  0  0  0  0  0  0  0  0  0  0
   -4.0164    4.1668    2.8983 H   0  0  0  0  0  0  0  0  0  0  0  0
   -5.8158    6.6707   -1.3567 H   0  0  0  0  0  0  0  0  0  0  0  0
   -5.1989   -1.6792   -1.0581 H   0  0  0  0  0  0  0  0  0  0  0  0
   -4.7122   -3.8345    0.8659 H   0  0  0  0  0  0  0  0  0  0  0  0
   -5.5917   -3.9534   -0.6945 H   0  0  0  0  0  0  0  0  0  0  0  0
   -7.7321   -3.6874    2.8408 H   0  0  0  0  0  0  0  0  0  0  0  0
   -2.6722   -3.2914   -1.5839 H   0  0  0  0  0  0  0  0  0  0  0  0
   -0.9544   -3.8684   -2.8284 H   0  0  0  0  0  0  0  0  0  0  0  0
   -2.3040   -4.6838    0.4755 H   0  0  0  0  0  0  0  0  0  0  0  0
   -1.9110   -5.4668   -1.0815 H   0  0  0  0  0  0  0  0  0  0  0  0
    0.5711   -4.8948   -0.6585 H   0  0  0  0  0  0  0  0  0  0  0  0
    0.1027   -4.3854    0.9995 H   0  0  0  0  0  0  0  0  0  0  0  0
   -0.4052   -7.1818   -0.2077 H   0  0  0  0  0  0  0  0  0  0  0  0
    0.9641   -6.7413    0.8600 H   0  0  0  0  0  0  0  0  0  0  0  0
   -2.8017   -7.4526    2.4902 H   0  0  0  0  0  0  0  0  0  0  0  0
  1  2  1  0
  2  3  1  0
  3  4  1  0
  4  5  1  0
  5  6  1  0
  6  7  2  0
  7  8  1  0
  8  9  1  0
  9 10  2  0
 10 11  1  0
 11 12  2  0
 12 13  1  0
 13 14  2  0
 14 15  1  0
 15 16  1  0
 16 17  1  0
 17 18  1  0
 18 19  1  0
 19 20  1  0
 20 21  2  0
 20 22  1  0
 22 23  1  0
 23 24  1  0
 24 25  1  0
 24 26  1  0
 26 27  1  0
 26 28  2  0
 18 29  1  0
 29 30  2  0
 29 31  1  0
 31 32  1  0
 32 33  1  0
 33 34  1  0
 33 35  2  0
 15 36  1  0
 36 37  1  0
 36 38  1  0
 38 39  1  0
 39 40  1  0
 40 41  1  0
 41 42  1  0
 41 43  2  0
  1 44  1  0
  1 45  1  0
  1 46  1  0
  2 47  1  0
  2 48  1  0
  3 49  1  0
  3 50  1  0
  4 51  1  0
  4 52  1  0
  5 53  1  0
  5 54  1  0
  6 55  1  0
  7 56  1  0
  8 57  1  0
  8 58  1  0
  9 59  1  0
 10 60  1  0
 11 61  1  0
 12 62  1  0
 13 63  1  0
 14 64  1  0
 15 65  1  1
 17 66  1  0
 17 67  1  0
 18 68  1  6
 19 69  1  0
 22 70  1  0
 22 71  1  0
 23 72  1  0
 23 73  1  0
 24 74  1  6
 25 75  1  0
 25 76  1  0
 27 77  1  0
 31 78  1  0
 32 79  1  0
 32 80  1  0
 34 81  1  0
 36 82  1  6
 37 83  1  0
 38 84  1  0
 38 85  1  0
 39 86  1  0
 39 87  1  0
 40 88  1  0
 40 89  1  0
 42 90  1  0
M  END
$$$$
