
     RDKit          3D

 51 54  0  0  0  0  0  0  0  0999 V2000
    8.5332   -1.5073    1.4153 F   0  0  0  0  0  0  0  0  0  0  0  0
    7.5214   -1.0521    0.6361 C   0  0  0  0  0  0  0  0  0  0  0  0
    7.6548   -1.0522   -0.7533 C   0  0  0  0  0  0  0  0  0  0  0  0
    6.6126   -0.5824   -1.5580 C   0  0  0  0  0  0  0  0  0  0  0  0
    5.4159   -0.1125   -0.9829 C   0  0  0  0  0  0  0  0  0  0  0  0
    5.3010   -0.1070    0.4221 C   0  0  0  0  0  0  0  0  0  0  0  0
    6.3465   -0.5781    1.2224 C   0  0  0  0  0  0  0  0  0  0  0  0
    4.3338    0.3930   -1.8741 C   0  0  0  0  0  0  0  0  0  0  0  0
    4.6616    0.9055   -2.9794 O   0  0  0  0  0  0  0  0  0  0  0  0
    2.8547    0.3291   -1.5443 C   0  0  0  0  0  0  0  0  0  0  0  0
    2.4217   -1.0253   -0.9539 C   0  0  0  0  0  0  0  0  0  0  0  0
    0.8928   -1.0755   -0.7383 C   0  0  0  0  0  0  0  0  0  0  0  0
    0.2798    0.2640   -0.5283 N   0  0  0  0  0  0  0  0  0  0  0  0
   -1.0183    0.1614    0.1731 C   0  0  0  0  0  0  0  0  0  0  0  0
   -2.0865   -0.4869   -0.7188 C   0  0  0  0  0  0  0  0  0  0  0  0
   -3.4118   -0.4088   -0.0712 N   0  0  0  0  0  0  0  0  0  0  0  0
   -3.8088   -1.3947    0.7990 C   0  0  0  0  0  0  0  0  0  0  0  0
   -3.0550   -2.3783    1.0397 O   0  0  0  0  0  0  0  0  0  0  0  0
   -5.0185   -1.3255    1.4173 N   0  0  0  0  0  0  0  0  0  0  0  0
   -5.8605   -0.2796    1.2064 C   0  0  0  0  0  0  0  0  0  0  0  0
   -7.1055   -0.2254    1.8543 C   0  0  0  0  0  0  0  0  0  0  0  0
   -7.9636    0.8558    1.6388 C   0  0  0  0  0  0  0  0  0  0  0  0
   -7.5868    1.8892    0.7784 C   0  0  0  0  0  0  0  0  0  0  0  0
   -6.3502    1.8464    0.1284 C   0  0  0  0  0  0  0  0  0  0  0  0
   -5.4781    0.7603    0.3370 C   0  0  0  0  0  0  0  0  0  0  0  0
   -4.2258    0.6748   -0.2942 C   0  0  0  0  0  0  0  0  0  0  0  0
   -3.8511    1.6030   -1.0654 O   0  0  0  0  0  0  0  0  0  0  0  0
    1.1906    1.1649    0.2059 C   0  0  0  0  0  0  0  0  0  0  0  0
    2.4003    1.5209   -0.6718 C   0  0  0  0  0  0  0  0  0  0  0  0
    8.5663   -1.4167   -1.2095 H   0  0  0  0  0  0  0  0  0  0  0  0
    6.7383   -0.5974   -2.6337 H   0  0  0  0  0  0  0  0  0  0  0  0
    4.4171    0.2663    0.9150 H   0  0  0  0  0  0  0  0  0  0  0  0
    6.2454   -0.5708    2.3001 H   0  0  0  0  0  0  0  0  0  0  0  0
    2.3071    0.4162   -2.5118 H   0  0  0  0  0  0  0  0  0  0  0  0
    2.7276   -1.8503   -1.6344 H   0  0  0  0  0  0  0  0  0  0  0  0
    2.9131   -1.2040    0.0228 H   0  0  0  0  0  0  0  0  0  0  0  0
    0.6834   -1.7581    0.1165 H   0  0  0  0  0  0  0  0  0  0  0  0
    0.4380   -1.5273   -1.6460 H   0  0  0  0  0  0  0  0  0  0  0  0
   -0.9142   -0.4096    1.1233 H   0  0  0  0  0  0  0  0  0  0  0  0
   -1.3861    1.1784    0.4360 H   0  0  0  0  0  0  0  0  0  0  0  0
   -1.8237   -1.5464   -0.9263 H   0  0  0  0  0  0  0  0  0  0  0  0
   -2.1004    0.0184   -1.7094 H   0  0  0  0  0  0  0  0  0  0  0  0
   -5.2970   -2.0945    2.0699 H   0  0  0  0  0  0  0  0  0  0  0  0
   -7.4105   -1.0186    2.5257 H   0  0  0  0  0  0  0  0  0  0  0  0
   -8.9221    0.8931    2.1403 H   0  0  0  0  0  0  0  0  0  0  0  0
   -8.2543    2.7254    0.6147 H   0  0  0  0  0  0  0  0  0  0  0  0
   -6.0807    2.6598   -0.5341 H   0  0  0  0  0  0  0  0  0  0  0  0
    0.6785    2.1147    0.4777 H   0  0  0  0  0  0  0  0  0  0  0  0
    1.5345    0.6835    1.1502 H   0  0  0  0  0  0  0  0  0  0  0  0
    3.2170    1.8980   -0.0226 H   0  0  0  0  0  0  0  0  0  0  0  0
    2.1223    2.3633   -1.3433 H   0  0  0  0  0  0  0  0  0  0  0  0
  1  2  1  0
  2  3  2  0
  3  4  1  0
  4  5  2  0
  5  6  1  0
  6  7  2  0
  5  8  1  0
  8  9  2  0
  8 10  1  0
 10 11  1  0
 11 12  1  0
 12 13  1  0
 13 14  1  0
 14 15  1  0
 15 16  1  0
 16 17  1  0
 17 18  2  0
 17 19  1  0
 19 20  1  0
 20 21  2  0
 21 22  1  0
 22 23  2  0
 23 24  1  0
 24 25  2  0
 25 26  1  0
 26 27  2  0
 13 28  1  0
 28 29  1  0
  7  2  1  0
 29 10  1  0
 26 16  1  0
 25 20  1  0
  3 30  1  0
  4 31  1  0
  6 32  1  0
  7 33  1  0
 10 34  1  0
 11 35  1  0
 11 36  1  0
 12 37  1  0
 12 38  1  0
 14 39  1  0
 14 40  1  0
 15 41  1  0
 15 42  1  0
 19 43  1  0
 21 44  1  0
 22 45  1  0
 23 46  1  0
 24 47  1  0
 28 48  1  0
 28 49  1  0
 29 50  1  0
 29 51  1  0
M  END
$$$$
