
     RDKit          3D

 40 41  0  0  0  0  0  0  0  0999 V2000
    6.1783    1.1840    1.0988 C   0  0  0  0  0  0  0  0  0  0  0  0
    4.8474    0.7031    0.6990 N   0  0  0  0  0  0  0  0  0  0  0  0
    4.9276   -0.6880    0.2162 C   0  0  0  0  0  0  0  0  0  0  0  0
    3.5230   -1.2259   -0.1285 C   0  0  0  0  0  0  0  0  0  0  0  0
    2.5191   -0.1469   -0.1268 N   0  0  0  0  0  0  0  0  0  0  0  0
    2.9805    0.9906   -0.9356 C   0  0  0  0  0  0  0  0  0  0  0  0
    4.2784    1.5803   -0.3459 C   0  0  0  0  0  0  0  0  0  0  0  0
    1.3212   -0.6407   -0.6809 N   0  0  0  0  0  0  0  0  0  0  0  0
    0.0979   -0.6198    0.0648 C   0  0  0  0  0  0  0  0  0  0  0  0
    0.1107   -0.1644    1.6457 S   0  0  0  0  0  0  0  0  0  0  0  0
   -1.0868   -1.1808   -0.5239 N   0  0  0  0  0  0  0  0  0  0  0  0
   -2.4293   -0.8549   -0.1257 C   0  0  0  0  0  0  0  0  0  0  0  0
   -3.4293   -1.8348   -0.2063 C   0  0  0  0  0  0  0  0  0  0  0  0
   -4.7472   -1.5329    0.1492 C   0  0  0  0  0  0  0  0  0  0  0  0
   -5.0835   -0.2425    0.5788 C   0  0  0  0  0  0  0  0  0  0  0  0
   -4.0949    0.7487    0.6294 C   0  0  0  0  0  0  0  0  0  0  0  0
   -2.7767    0.4473    0.2747 C   0  0  0  0  0  0  0  0  0  0  0  0
   -6.7455    0.1447    1.0105 S   0  0  0  0  0  6  0  0  0  0  0  0
   -7.5778    0.7381   -0.3834 N   0  0  0  0  0  0  0  0  0  0  0  0
   -7.4393   -1.0868    1.5219 O   0  0  0  0  0  0  0  0  0  0  0  0
   -6.7591    1.1896    2.0912 O   0  0  0  0  0  0  0  0  0  0  0  0
    6.8960    1.1431    0.2491 H   0  0  0  0  0  0  0  0  0  0  0  0
    6.5713    0.5652    1.9338 H   0  0  0  0  0  0  0  0  0  0  0  0
    6.1117    2.2308    1.4663 H   0  0  0  0  0  0  0  0  0  0  0  0
    5.3771   -1.3374    1.0003 H   0  0  0  0  0  0  0  0  0  0  0  0
    5.5788   -0.7472   -0.6865 H   0  0  0  0  0  0  0  0  0  0  0  0
    3.2272   -1.9859    0.6274 H   0  0  0  0  0  0  0  0  0  0  0  0
    3.5597   -1.7325   -1.1203 H   0  0  0  0  0  0  0  0  0  0  0  0
    2.1945    1.7779   -0.9529 H   0  0  0  0  0  0  0  0  0  0  0  0
    3.1611    0.6695   -1.9875 H   0  0  0  0  0  0  0  0  0  0  0  0
    5.0100    1.7431   -1.1706 H   0  0  0  0  0  0  0  0  0  0  0  0
    4.0489    2.5717    0.1034 H   0  0  0  0  0  0  0  0  0  0  0  0
    1.3051   -0.9964   -1.6652 H   0  0  0  0  0  0  0  0  0  0  0  0
   -0.9603   -1.8912   -1.2799 H   0  0  0  0  0  0  0  0  0  0  0  0
   -3.1840   -2.8362   -0.5374 H   0  0  0  0  0  0  0  0  0  0  0  0
   -5.5041   -2.3041    0.0843 H   0  0  0  0  0  0  0  0  0  0  0  0
   -4.3457    1.7572    0.9330 H   0  0  0  0  0  0  0  0  0  0  0  0
   -2.0349    1.2350    0.2920 H   0  0  0  0  0  0  0  0  0  0  0  0
   -7.0915    1.6141   -0.6790 H   0  0  0  0  0  0  0  0  0  0  0  0
   -8.5358    1.0152   -0.0725 H   0  0  0  0  0  0  0  0  0  0  0  0
  1  2  1  0
  2  3  1  0
  3  4  1  0
  4  5  1  0
  5  6  1  0
  6  7  1  0
  5  8  1  0
  8  9  1  0
  9 10  2  0
  9 11  1  0
 11 12  1  0
 12 13  2  0
 13 14  1  0
 14 15  2  0
 15 16  1  0
 16 17  2  0
 15 18  1  0
 18 19  1  0
 18 20  2  0
 18 21  2  0
  7  2  1  0
 17 12  1  0
  1 22  1  0
  1 23  1  0
  1 24  1  0
  3 25  1  0
  3 26  1  0
  4 27  1  0
  4 28  1  0
  6 29  1  0
  6 30  1  0
  7 31  1  0
  7 32  1  0
  8 33  1  0
 11 34  1  0
 13 35  1  0
 14 36  1  0
 16 37  1  0
 17 38  1  0
 19 39  1  0
 19 40  1  0
M  END
$$$$
