
     RDKit          3D

 39 39  0  0  0  0  0  0  0  0999 V2000
   -1.7459    2.4042   -1.2818 C   0  0  0  0  0  0  0  0  0  0  0  0
   -0.5335    1.4738   -1.2077 C   0  0  0  0  0  0  0  0  0  0  0  0
   -0.5027    0.6478    0.1069 C   0  0  2  0  0  0  0  0  0  0  0  0
    0.8049   -0.1844    0.3051 C   0  0  1  0  0  0  0  0  0  0  0  0
    1.0643   -1.2005   -0.8226 C   0  0  0  0  0  0  0  0  0  0  0  0
    2.0430    0.7246    0.5046 C   0  0  0  0  0  0  0  0  0  0  0  0
    3.1865   -0.0539    1.0353 N   0  0  0  0  0  0  0  0  0  0  0  0
    3.1761   -0.0749    2.5089 C   0  0  0  0  0  0  0  0  0  0  0  0
    4.4616    0.5089    0.5626 C   0  0  0  0  0  0  0  0  0  0  0  0
   -1.7400   -0.2240    0.3054 C   0  0  0  0  0  0  0  0  0  0  0  0
   -2.3061   -0.9749   -0.7460 C   0  0  0  0  0  0  0  0  0  0  0  0
   -3.4269   -1.7865   -0.5199 C   0  0  0  0  0  0  0  0  0  0  0  0
   -3.9911   -2.5229   -1.5592 O   0  0  0  0  0  0  0  0  0  0  0  0
   -3.9847   -1.8623    0.7587 C   0  0  0  0  0  0  0  0  0  0  0  0
   -3.4241   -1.1375    1.8113 C   0  0  0  0  0  0  0  0  0  0  0  0
   -2.3069   -0.3283    1.5896 C   0  0  0  0  0  0  0  0  0  0  0  0
   -1.7677    3.0821   -0.4021 H   0  0  0  0  0  0  0  0  0  0  0  0
   -1.6829    3.0222   -2.2022 H   0  0  0  0  0  0  0  0  0  0  0  0
   -2.6896    1.8213   -1.3185 H   0  0  0  0  0  0  0  0  0  0  0  0
    0.3713    2.1134   -1.2656 H   0  0  0  0  0  0  0  0  0  0  0  0
   -0.5265    0.8189   -2.1022 H   0  0  0  0  0  0  0  0  0  0  0  0
   -0.5132    1.4041    0.9248 H   0  0  0  0  0  0  0  0  0  0  0  0
    0.6683   -0.7719    1.2388 H   0  0  0  0  0  0  0  0  0  0  0  0
    0.2228   -1.9154   -0.9131 H   0  0  0  0  0  0  0  0  0  0  0  0
    1.2231   -0.6912   -1.7955 H   0  0  0  0  0  0  0  0  0  0  0  0
    1.9724   -1.7979   -0.5954 H   0  0  0  0  0  0  0  0  0  0  0  0
    2.2994    1.1756   -0.4804 H   0  0  0  0  0  0  0  0  0  0  0  0
    1.7979    1.5755    1.1809 H   0  0  0  0  0  0  0  0  0  0  0  0
    3.3144    0.9464    2.9292 H   0  0  0  0  0  0  0  0  0  0  0  0
    2.2210   -0.4917    2.8899 H   0  0  0  0  0  0  0  0  0  0  0  0
    3.9896   -0.7317    2.8853 H   0  0  0  0  0  0  0  0  0  0  0  0
    4.5241    0.4309   -0.5441 H   0  0  0  0  0  0  0  0  0  0  0  0
    5.3168   -0.0681    0.9766 H   0  0  0  0  0  0  0  0  0  0  0  0
    4.5641    1.5768    0.8596 H   0  0  0  0  0  0  0  0  0  0  0  0
   -1.8829   -0.9407   -1.7398 H   0  0  0  0  0  0  0  0  0  0  0  0
   -3.6112   -2.4916   -2.4981 H   0  0  0  0  0  0  0  0  0  0  0  0
   -4.8498   -2.4882    0.9374 H   0  0  0  0  0  0  0  0  0  0  0  0
   -3.8538   -1.2051    2.8023 H   0  0  0  0  0  0  0  0  0  0  0  0
   -1.8824    0.2172    2.4233 H   0  0  0  0  0  0  0  0  0  0  0  0
  1  2  1  0
  2  3  1  0
  3  4  1  0
  4  5  1  0
  4  6  1  0
  6  7  1  0
  7  8  1  0
  7  9  1  0
  3 10  1  0
 10 11  2  0
 11 12  1  0
 12 13  1  0
 12 14  2  0
 14 15  1  0
 15 16  2  0
 16 10  1  0
  1 17  1  0
  1 18  1  0
  1 19  1  0
  2 20  1  0
  2 21  1  0
  3 22  1  1
  4 23  1  1
  5 24  1  0
  5 25  1  0
  5 26  1  0
  6 27  1  0
  6 28  1  0
  8 29  1  0
  8 30  1  0
  8 31  1  0
  9 32  1  0
  9 33  1  0
  9 34  1  0
 11 35  1  0
 13 36  1  0
 14 37  1  0
 15 38  1  0
 16 39  1  0
M  END
$$$$
