
     RDKit          3D

 51 55  0  0  0  0  0  0  0  0999 V2000
    7.4102    1.9820   -1.6341 C   0  0  0  0  0  0  0  0  0  0  0  0
    6.1366    2.6638   -1.1351 C   0  0  2  0  0  0  0  0  0  0  0  0
    6.3675    3.4740    0.1585 C   0  0  0  0  0  0  0  0  0  0  0  0
    5.4968    2.8601    1.0914 O   0  0  0  0  0  0  0  0  0  0  0  0
    4.8366    1.8178    0.4753 C   0  0  0  0  0  0  0  0  0  0  0  0
    3.8702    1.0073    1.1564 N   0  0  0  0  0  0  0  0  0  0  0  0
    3.2978   -0.1964    0.6165 C   0  0  0  0  0  0  0  0  0  0  0  0
    4.0599   -1.0802   -0.1671 C   0  0  0  0  0  0  0  0  0  0  0  0
    3.4875   -2.2478   -0.6751 C   0  0  0  0  0  0  0  0  0  0  0  0
    2.1553   -2.5599   -0.3903 C   0  0  0  0  0  0  0  0  0  0  0  0
    1.6028   -3.6887   -0.9040 N   0  0  0  0  0  0  0  0  0  0  0  0
    0.3127   -4.0155   -0.6443 C   0  0  0  0  0  0  0  0  0  0  0  0
   -0.4463   -3.2170    0.1475 N   0  0  0  0  0  0  0  0  0  0  0  0
    0.0470   -2.0709    0.6921 C   0  0  0  0  0  0  0  0  0  0  0  0
   -0.7879   -1.2929    1.5675 N   0  0  0  0  0  0  0  0  0  0  0  0
   -2.2161   -1.2013    1.4233 C   0  0  0  0  0  0  0  0  0  0  0  0
   -2.8325   -1.3113    0.1655 C   0  0  0  0  0  0  0  0  0  0  0  0
   -4.2198   -1.1977    0.0446 C   0  0  0  0  0  0  0  0  0  0  0  0
   -5.0174   -0.9566    1.1797 C   0  0  0  0  0  0  0  0  0  0  0  0
   -6.4158   -0.8336    1.1037 O   0  0  0  0  0  0  0  0  0  0  0  0
   -7.1829   -0.8588   -0.0997 C   0  0  0  0  0  0  0  0  0  0  0  0
   -6.9432    0.3789   -0.9042 C   0  0  0  0  0  0  0  0  0  0  0  0
   -6.9090    1.6204   -0.3730 N   0  0  0  0  0  0  0  0  0  0  0  0
   -6.7162    2.5723   -1.3247 C   0  0  0  0  0  0  0  0  0  0  0  0
   -6.6078    2.0936   -2.6250 C   0  0  0  0  0  0  0  0  0  0  0  0
   -6.7608    0.4197   -2.5747 S   0  0  0  0  0  0  0  0  0  0  0  0
   -4.3986   -0.8316    2.4329 C   0  0  0  0  0  0  0  0  0  0  0  0
   -5.3581   -0.5217    3.8721 Cl  0  0  0  0  0  0  0  0  0  0  0  0
   -3.0091   -0.9456    2.5506 C   0  0  0  0  0  0  0  0  0  0  0  0
    1.3854   -1.7047    0.4293 C   0  0  0  0  0  0  0  0  0  0  0  0
    1.9673   -0.5212    0.9238 C   0  0  0  0  0  0  0  0  0  0  0  0
    5.1445    1.6623   -0.7655 N   0  0  0  0  0  0  0  0  0  0  0  0
    8.1749    2.7466   -1.8874 H   0  0  0  0  0  0  0  0  0  0  0  0
    7.1861    1.3893   -2.5462 H   0  0  0  0  0  0  0  0  0  0  0  0
    7.8190    1.3015   -0.8563 H   0  0  0  0  0  0  0  0  0  0  0  0
    5.7222    3.3180   -1.9332 H   0  0  0  0  0  0  0  0  0  0  0  0
    6.0771    4.5370    0.0177 H   0  0  0  0  0  0  0  0  0  0  0  0
    7.4146    3.4128    0.5268 H   0  0  0  0  0  0  0  0  0  0  0  0
    3.5017    1.3688    2.0649 H   0  0  0  0  0  0  0  0  0  0  0  0
    5.1030   -0.8801   -0.3723 H   0  0  0  0  0  0  0  0  0  0  0  0
    4.0845   -2.9129   -1.2870 H   0  0  0  0  0  0  0  0  0  0  0  0
   -0.1099   -4.9185   -1.0627 H   0  0  0  0  0  0  0  0  0  0  0  0
   -0.3569   -0.8792    2.4245 H   0  0  0  0  0  0  0  0  0  0  0  0
   -2.2418   -1.4666   -0.7278 H   0  0  0  0  0  0  0  0  0  0  0  0
   -4.6582   -1.2941   -0.9382 H   0  0  0  0  0  0  0  0  0  0  0  0
   -8.2591   -0.8985    0.1671 H   0  0  0  0  0  0  0  0  0  0  0  0
   -6.9466   -1.7704   -0.6888 H   0  0  0  0  0  0  0  0  0  0  0  0
   -6.6584    3.6240   -1.0792 H   0  0  0  0  0  0  0  0  0  0  0  0
   -6.4581    2.6947   -3.5116 H   0  0  0  0  0  0  0  0  0  0  0  0
   -2.5456   -0.8431    3.5241 H   0  0  0  0  0  0  0  0  0  0  0  0
    1.3953    0.1717    1.5256 H   0  0  0  0  0  0  0  0  0  0  0  0
  1  2  1  0
  2  3  1  0
  3  4  1  0
  4  5  1  0
  5  6  1  0
  6  7  1  0
  7  8  2  0
  8  9  1  0
  9 10  2  0
 10 11  1  0
 11 12  2  0
 12 13  1  0
 13 14  2  0
 14 15  1  0
 15 16  1  0
 16 17  2  0
 17 18  1  0
 18 19  2  0
 19 20  1  0
 20 21  1  0
 21 22  1  0
 22 23  2  0
 23 24  1  0
 24 25  2  0
 25 26  1  0
 19 27  1  0
 27 28  1  0
 27 29  2  0
 14 30  1  0
 30 31  2  0
  5 32  2  0
 32  2  1  0
 31  7  1  0
 30 10  1  0
 29 16  1  0
 26 22  1  0
  1 33  1  0
  1 34  1  0
  1 35  1  0
  2 36  1  6
  3 37  1  0
  3 38  1  0
  6 39  1  0
  8 40  1  0
  9 41  1  0
 12 42  1  0
 15 43  1  0
 17 44  1  0
 18 45  1  0
 21 46  1  0
 21 47  1  0
 24 48  1  0
 25 49  1  0
 29 50  1  0
 31 51  1  0
M  END
$$$$
