
     RDKit          3D

 54 57  0  0  0  0  0  0  0  0999 V2000
   -4.1958   -3.5801    1.9416 C   0  0  0  0  0  0  0  0  0  0  0  0
   -4.6386   -3.3650    0.4986 C   0  0  0  0  0  0  0  0  0  0  0  0
   -4.1981   -2.0577    0.0154 N   0  0  0  0  0  0  0  0  0  0  0  0
   -4.8267   -0.8337    0.4300 C   0  0  0  0  0  0  0  0  0  0  0  0
   -5.8663   -0.8737    1.1426 O   0  0  0  0  0  0  0  0  0  0  0  0
   -4.2841    0.4793    0.0335 C   0  0  0  0  0  0  0  0  0  0  0  0
   -3.0851    0.7148   -0.6505 C   0  0  0  0  0  0  0  0  0  0  0  0
   -2.8456    2.0817   -0.8562 C   0  0  0  0  0  0  0  0  0  0  0  0
   -1.7614    2.6905   -1.5057 C   0  0  0  0  0  0  0  0  0  0  0  0
   -1.7592    4.0515   -1.6165 N   0  0  0  0  0  0  0  0  0  0  0  0
   -2.7714    4.8200   -1.1126 C   0  0  0  0  0  0  0  0  0  0  0  0
   -2.7248    6.2376   -1.2541 N   0  0  0  0  0  0  0  0  0  0  0  0
   -3.8238    4.2348   -0.4739 N   0  0  0  0  0  0  0  0  0  0  0  0
   -3.8467    2.8870   -0.3544 C   0  0  0  0  0  0  0  0  0  0  0  0
   -5.0393    1.9607    0.3693 S   0  0  0  0  0  0  0  0  0  0  0  0
   -0.6245    1.9148   -2.0474 C   0  0  0  0  0  0  0  0  0  0  0  0
   -0.2311    2.0408   -3.3947 C   0  0  0  0  0  0  0  0  0  0  0  0
   -1.1087    3.0682   -4.5242 Cl  0  0  0  0  0  0  0  0  0  0  0  0
    0.8599    1.3084   -3.8729 C   0  0  0  0  0  0  0  0  0  0  0  0
    1.5674    0.4525   -3.0244 C   0  0  0  0  0  0  0  0  0  0  0  0
    2.9303   -0.4555   -3.6615 Cl  0  0  0  0  0  0  0  0  0  0  0  0
    1.1922    0.3198   -1.6804 C   0  0  0  0  0  0  0  0  0  0  0  0
    1.9232   -0.5530   -0.8598 O   0  0  0  0  0  0  0  0  0  0  0  0
    1.6497   -0.7875    0.5197 C   0  0  0  0  0  0  0  0  0  0  0  0
    2.6474   -1.8019    1.0776 C   0  0  0  0  0  0  0  0  0  0  0  0
    4.0374   -1.3577    0.8520 N   0  0  0  0  0  0  0  0  0  0  0  0
    4.9941   -2.4244    1.1535 C   0  0  0  0  0  0  0  0  0  0  0  0
    6.3088   -1.7438    1.4897 C   0  0  0  0  0  0  0  0  0  0  0  0
    5.9281   -0.3433    1.9398 C   0  0  0  0  0  0  0  0  0  0  0  0
    4.4255   -0.2354    1.7156 C   0  0  0  0  0  0  0  0  0  0  0  0
    0.0989    1.0622   -1.1964 C   0  0  0  0  0  0  0  0  0  0  0  0
   -4.4995   -4.5939    2.2772 H   0  0  0  0  0  0  0  0  0  0  0  0
   -3.0910   -3.4932    2.0174 H   0  0  0  0  0  0  0  0  0  0  0  0
   -4.6672   -2.8291    2.6095 H   0  0  0  0  0  0  0  0  0  0  0  0
   -5.7441   -3.4487    0.4201 H   0  0  0  0  0  0  0  0  0  0  0  0
   -4.1894   -4.1611   -0.1340 H   0  0  0  0  0  0  0  0  0  0  0  0
   -3.4440   -2.0385   -0.7055 H   0  0  0  0  0  0  0  0  0  0  0  0
   -2.4149   -0.0638   -0.9843 H   0  0  0  0  0  0  0  0  0  0  0  0
   -1.9224    6.6937   -1.7423 H   0  0  0  0  0  0  0  0  0  0  0  0
   -3.4929    6.8327   -0.8717 H   0  0  0  0  0  0  0  0  0  0  0  0
    1.1558    1.3999   -4.9106 H   0  0  0  0  0  0  0  0  0  0  0  0
    1.7229    0.1645    1.0880 H   0  0  0  0  0  0  0  0  0  0  0  0
    0.6214   -1.1948    0.6326 H   0  0  0  0  0  0  0  0  0  0  0  0
    2.4448   -1.9704    2.1596 H   0  0  0  0  0  0  0  0  0  0  0  0
    2.4764   -2.7676    0.5509 H   0  0  0  0  0  0  0  0  0  0  0  0
    4.6647   -3.0288    2.0312 H   0  0  0  0  0  0  0  0  0  0  0  0
    5.1116   -3.0928    0.2733 H   0  0  0  0  0  0  0  0  0  0  0  0
    6.9496   -1.6898    0.5819 H   0  0  0  0  0  0  0  0  0  0  0  0
    6.8513   -2.2940    2.2892 H   0  0  0  0  0  0  0  0  0  0  0  0
    6.1759   -0.1914    3.0133 H   0  0  0  0  0  0  0  0  0  0  0  0
    6.4673    0.4160    1.3316 H   0  0  0  0  0  0  0  0  0  0  0  0
    4.1778    0.7267    1.2176 H   0  0  0  0  0  0  0  0  0  0  0  0
    3.9076   -0.2755    2.7015 H   0  0  0  0  0  0  0  0  0  0  0  0
   -0.1934    0.9876   -0.1573 H   0  0  0  0  0  0  0  0  0  0  0  0
  1  2  1  0
  2  3  1  0
  3  4  1  0
  4  5  2  0
  4  6  1  0
  6  7  2  0
  7  8  1  0
  8  9  2  0
  9 10  1  0
 10 11  2  0
 11 12  1  0
 11 13  1  0
 13 14  2  0
 14 15  1  0
  9 16  1  0
 16 17  2  0
 17 18  1  0
 17 19  1  0
 19 20  2  0
 20 21  1  0
 20 22  1  0
 22 23  1  0
 23 24  1  0
 24 25  1  0
 25 26  1  0
 26 27  1  0
 27 28  1  0
 28 29  1  0
 29 30  1  0
 22 31  2  0
 15  6  1  0
 31 16  1  0
 14  8  1  0
 30 26  1  0
  1 32  1  0
  1 33  1  0
  1 34  1  0
  2 35  1  0
  2 36  1  0
  3 37  1  0
  7 38  1  0
 12 39  1  0
 12 40  1  0
 19 41  1  0
 24 42  1  0
 24 43  1  0
 25 44  1  0
 25 45  1  0
 27 46  1  0
 27 47  1  0
 28 48  1  0
 28 49  1  0
 29 50  1  0
 29 51  1  0
 30 52  1  0
 30 53  1  0
 31 54  1  0
M  END
$$$$
