
     RDKit          3D

 47 50  0  0  0  0  0  0  0  0999 V2000
   -1.7395   -1.2208   -0.4012 C   0  0  2  0  0  0  0  0  0  0  0  0
   -3.1885   -1.0561   -0.9805 C   0  0  0  0  0  0  0  0  0  0  0  0
   -4.0467   -0.2432   -0.0608 C   0  0  0  0  0  0  0  0  0  0  0  0
   -5.4268   -0.0802    0.0171 C   0  0  0  0  0  0  0  0  0  0  0  0
   -5.7270    0.8807    0.9325 N   0  0  0  0  0  0  0  0  0  0  0  0
   -4.5443    1.3246    1.4023 C   0  0  0  0  0  0  0  0  0  0  0  0
   -4.2892    2.3383    2.3244 C   0  0  0  0  0  0  0  0  0  0  0  0
   -2.9364    2.6358    2.6077 C   0  0  0  0  0  0  0  0  0  0  0  0
   -1.8868    1.9313    1.9599 C   0  0  0  0  0  0  0  0  0  0  0  0
   -2.1907    0.9160    1.0195 C   0  0  0  0  0  0  0  0  0  0  0  0
   -3.5258    0.6581    0.8038 C   0  0  0  0  0  0  0  0  0  0  0  0
   -1.2226    0.0951    0.2342 C   0  0  0  0  0  0  0  0  0  0  0  0
    0.0673    0.4561    0.1304 C   0  0  0  0  0  0  0  0  0  0  0  0
    1.0536   -0.3214   -0.6945 C   0  0  2  0  0  0  0  0  0  0  0  0
    0.5705   -1.7536   -0.9331 C   0  0  0  0  0  0  0  0  0  0  0  0
   -0.8109   -1.7286   -1.4486 N   0  0  0  0  0  0  0  0  0  0  0  0
   -1.1823   -3.0884   -1.8874 C   0  0  0  0  0  0  0  0  0  0  0  0
    2.4053   -0.3274   -0.0296 C   0  0  0  0  0  0  0  0  0  0  0  0
    2.5079   -0.7088    1.1692 O   0  0  0  0  0  0  0  0  0  0  0  0
    3.5723    0.0748   -0.7632 N   0  0  0  0  0  0  0  0  0  0  0  0
    4.8957    0.1920   -0.1438 C   0  0  1  0  0  0  0  0  0  0  0  0
    5.9650   -0.3182   -1.1126 C   0  0  0  0  0  0  0  0  0  0  0  0
    5.1657    1.6541    0.2418 C   0  0  0  0  0  0  0  0  0  0  0  0
    4.2066    2.1088    1.1581 O   0  0  0  0  0  0  0  0  0  0  0  0
   -1.7992   -1.9603    0.4311 H   0  0  0  0  0  0  0  0  0  0  0  0
   -3.6683   -2.0485   -1.1122 H   0  0  0  0  0  0  0  0  0  0  0  0
   -3.1415   -0.5431   -1.9649 H   0  0  0  0  0  0  0  0  0  0  0  0
   -6.1628   -0.6105   -0.5725 H   0  0  0  0  0  0  0  0  0  0  0  0
   -6.6784    1.2234    1.1925 H   0  0  0  0  0  0  0  0  0  0  0  0
   -5.0950    2.8796    2.8026 H   0  0  0  0  0  0  0  0  0  0  0  0
   -2.6985    3.4116    3.3237 H   0  0  0  0  0  0  0  0  0  0  0  0
   -0.8644    2.1771    2.2093 H   0  0  0  0  0  0  0  0  0  0  0  0
    0.4063    1.3964    0.5446 H   0  0  0  0  0  0  0  0  0  0  0  0
    1.1286    0.1879   -1.6802 H   0  0  0  0  0  0  0  0  0  0  0  0
    0.6253   -2.3489    0.0089 H   0  0  0  0  0  0  0  0  0  0  0  0
    1.2549   -2.2219   -1.6767 H   0  0  0  0  0  0  0  0  0  0  0  0
   -2.1348   -3.0666   -2.4547 H   0  0  0  0  0  0  0  0  0  0  0  0
   -0.4240   -3.4953   -2.5912 H   0  0  0  0  0  0  0  0  0  0  0  0
   -1.2772   -3.7828   -1.0232 H   0  0  0  0  0  0  0  0  0  0  0  0
    3.4512    0.4292   -1.7394 H   0  0  0  0  0  0  0  0  0  0  0  0
    4.9512   -0.4369    0.7721 H   0  0  0  0  0  0  0  0  0  0  0  0
    5.9776    0.2929   -2.0407 H   0  0  0  0  0  0  0  0  0  0  0  0
    6.9679   -0.2721   -0.6368 H   0  0  0  0  0  0  0  0  0  0  0  0
    5.7541   -1.3747   -1.3833 H   0  0  0  0  0  0  0  0  0  0  0  0
    5.1196    2.2952   -0.6648 H   0  0  0  0  0  0  0  0  0  0  0  0
    6.1859    1.7558    0.6779 H   0  0  0  0  0  0  0  0  0  0  0  0
    4.4293    1.6935    2.0320 H   0  0  0  0  0  0  0  0  0  0  0  0
  1  2  1  0
  2  3  1  0
  3  4  2  0
  4  5  1  0
  5  6  1  0
  6  7  2  0
  7  8  1  0
  8  9  2  0
  9 10  1  0
 10 11  2  0
 10 12  1  0
 12 13  2  0
 13 14  1  0
 14 15  1  0
 15 16  1  0
 16 17  1  0
 14 18  1  0
 18 19  2  0
 18 20  1  0
 20 21  1  0
 21 22  1  0
 21 23  1  0
 23 24  1  0
 12  1  1  0
 16  1  1  0
 11  3  1  0
 11  6  1  0
  1 25  1  1
  2 26  1  0
  2 27  1  0
  4 28  1  0
  5 29  1  0
  7 30  1  0
  8 31  1  0
  9 32  1  0
 13 33  1  0
 14 34  1  6
 15 35  1  0
 15 36  1  0
 17 37  1  0
 17 38  1  0
 17 39  1  0
 20 40  1  0
 21 41  1  1
 22 42  1  0
 22 43  1  0
 22 44  1  0
 23 45  1  0
 23 46  1  0
 24 47  1  0
M  END
$$$$
