
     RDKit          3D

 50 53  0  0  0  0  0  0  0  0999 V2000
    4.8404   -0.5093   -1.8998 C   0  0  0  0  0  0  0  0  0  0  0  0
    4.1662    0.0884   -0.6608 C   0  0  1  0  0  0  0  0  0  0  0  0
    2.6621    0.2836   -0.9137 C   0  0  0  0  0  0  0  0  0  0  0  0
    1.9692    0.6177    0.3337 N   0  0  0  0  0  0  0  0  0  0  0  0
    2.7425    0.8531    1.5549 C   0  0  0  0  0  0  0  0  0  0  0  0
    3.7875   -0.2723    1.7609 C   0  0  1  0  0  0  0  0  0  0  0  0
    3.1683   -1.4376    2.5354 C   0  0  0  0  0  0  0  0  0  0  0  0
    4.3532   -0.8006    0.4967 N   0  0  0  0  0  0  0  0  0  0  0  0
    0.5553    0.8696    0.3103 C   0  0  0  0  0  0  0  0  0  0  0  0
    0.0717    2.1546    0.5461 C   0  0  0  0  0  0  0  0  0  0  0  0
    0.9507    3.1612    0.7899 F   0  0  0  0  0  0  0  0  0  0  0  0
   -1.3044    2.4056    0.5891 C   0  0  0  0  0  0  0  0  0  0  0  0
   -1.7309    3.7124    1.0036 N   0  0  0  0  0  0  0  0  0  0  0  0
   -2.2284    1.3592    0.2877 C   0  0  0  0  0  0  0  0  0  0  0  0
   -3.6276    1.5792    0.2196 C   0  0  0  0  0  0  0  0  0  0  0  0
   -4.0991    2.7461    0.2847 O   0  0  0  0  0  0  0  0  0  0  0  0
   -4.5073    0.4992    0.0443 C   0  0  0  0  0  0  0  0  0  0  0  0
   -3.9700   -0.7683   -0.1888 C   0  0  0  0  0  0  0  0  0  0  0  0
   -2.6236   -0.9687   -0.2976 N   0  0  0  0  0  0  0  0  0  0  0  0
   -2.1822   -2.3184   -0.7025 C   0  0  0  0  0  0  0  0  0  0  0  0
   -2.8683   -2.8802   -1.9495 C   0  0  0  0  0  0  0  0  0  0  0  0
   -1.4501   -2.3606   -2.0420 C   0  0  0  0  0  0  0  0  0  0  0  0
   -1.7355    0.0443    0.0189 C   0  0  0  0  0  0  0  0  0  0  0  0
   -0.3348   -0.1840    0.0917 C   0  0  0  0  0  0  0  0  0  0  0  0
    0.1909   -1.4332    0.0266 F   0  0  0  0  0  0  0  0  0  0  0  0
   -5.9864    0.6738    0.0727 C   0  0  0  0  0  0  0  0  0  0  0  0
   -6.5560    1.8847    0.4586 O   0  0  0  0  0  0  0  0  0  0  0  0
   -6.7457   -0.2821   -0.2441 O   0  0  0  0  0  0  0  0  0  0  0  0
    5.9353   -0.5942   -1.7332 H   0  0  0  0  0  0  0  0  0  0  0  0
    4.6726    0.1458   -2.7813 H   0  0  0  0  0  0  0  0  0  0  0  0
    4.4331   -1.5203   -2.1163 H   0  0  0  0  0  0  0  0  0  0  0  0
    4.6391    1.0765   -0.4568 H   0  0  0  0  0  0  0  0  0  0  0  0
    2.5100    1.1007   -1.6522 H   0  0  0  0  0  0  0  0  0  0  0  0
    2.2305   -0.6525   -1.3299 H   0  0  0  0  0  0  0  0  0  0  0  0
    2.0704    0.9351    2.4384 H   0  0  0  0  0  0  0  0  0  0  0  0
    3.2697    1.8272    1.4595 H   0  0  0  0  0  0  0  0  0  0  0  0
    4.6084    0.1460    2.3882 H   0  0  0  0  0  0  0  0  0  0  0  0
    2.3150   -1.8679    1.9685 H   0  0  0  0  0  0  0  0  0  0  0  0
    2.8090   -1.0962    3.5297 H   0  0  0  0  0  0  0  0  0  0  0  0
    3.9280   -2.2320    2.6954 H   0  0  0  0  0  0  0  0  0  0  0  0
    5.3795   -0.9568    0.6393 H   0  0  0  0  0  0  0  0  0  0  0  0
   -2.5377    3.8346    1.6536 H   0  0  0  0  0  0  0  0  0  0  0  0
   -1.1052    4.5394    0.8804 H   0  0  0  0  0  0  0  0  0  0  0  0
   -4.6460   -1.6044   -0.3311 H   0  0  0  0  0  0  0  0  0  0  0  0
   -1.8881   -3.0477    0.0821 H   0  0  0  0  0  0  0  0  0  0  0  0
   -2.9357   -3.9879   -1.9844 H   0  0  0  0  0  0  0  0  0  0  0  0
   -3.5973   -2.2243   -2.4714 H   0  0  0  0  0  0  0  0  0  0  0  0
   -0.6785   -3.1556   -2.1157 H   0  0  0  0  0  0  0  0  0  0  0  0
   -1.3580   -1.3863   -2.5685 H   0  0  0  0  0  0  0  0  0  0  0  0
   -7.5618    2.0034    0.4819 H   0  0  0  0  0  0  0  0  0  0  0  0
  1  2  1  0
  2  3  1  0
  3  4  1  0
  4  5  1  0
  5  6  1  0
  6  7  1  0
  6  8  1  0
  4  9  1  0
  9 10  2  0
 10 11  1  0
 10 12  1  0
 12 13  1  0
 12 14  2  0
 14 15  1  0
 15 16  2  0
 15 17  1  0
 17 18  2  0
 18 19  1  0
 19 20  1  0
 20 21  1  0
 21 22  1  0
 19 23  1  0
 23 24  2  0
 24 25  1  0
 17 26  1  0
 26 27  1  0
 26 28  2  0
  8  2  1  0
 24  9  1  0
 23 14  1  0
 22 20  1  0
  1 29  1  0
  1 30  1  0
  1 31  1  0
  2 32  1  1
  3 33  1  0
  3 34  1  0
  5 35  1  0
  5 36  1  0
  6 37  1  1
  7 38  1  0
  7 39  1  0
  7 40  1  0
  8 41  1  0
 13 42  1  0
 13 43  1  0
 18 44  1  0
 20 45  1  0
 21 46  1  0
 21 47  1  0
 22 48  1  0
 22 49  1  0
 27 50  1  0
M  END
$$$$
