
     RDKit          3D

 32 32  0  0  0  0  0  0  0  0999 V2000
   -1.9920    0.0027    0.5356 C   0  0  1  0  0  0  0  0  0  0  0  0
   -2.8846   -1.1572    0.6615 N   0  0  0  0  0  4  0  0  0  0  0  0
   -1.2482    0.0106   -0.8210 C   0  0  0  0  0  0  0  0  0  0  0  0
   -0.1988   -1.0740   -0.9114 C   0  0  0  0  0  0  0  0  0  0  0  0
    1.1581   -0.9578   -0.5234 C   0  0  0  0  0  0  0  0  0  0  0  0
    1.7907   -2.4713   -0.8760 S   0  0  0  0  0  0  0  0  0  0  0  0
    0.4710   -3.2788   -1.4595 N   0  0  0  0  0  0  0  0  0  0  0  0
   -0.5254   -2.3638   -1.4133 C   0  0  0  0  0  0  0  0  0  0  0  0
   -1.8016   -2.6892   -1.8577 O   0  0  0  0  0  1  0  0  0  0  0  0
    1.9897    0.2601   -0.0949 C   0  0  0  0  0  0  0  0  0  0  0  0
    2.1962    1.1951   -1.3022 C   0  0  0  0  0  0  0  0  0  0  0  0
    3.3843   -0.1941    0.4004 C   0  0  0  0  0  0  0  0  0  0  0  0
    1.3238    1.0291    1.0647 C   0  0  0  0  0  0  0  0  0  0  0  0
   -2.7744    1.2789    0.6935 C   0  0  0  0  0  0  0  0  0  0  0  0
   -2.3873    2.2137    1.6487 O   0  0  0  0  0  0  0  0  0  0  0  0
   -3.7672    1.5130   -0.0475 O   0  0  0  0  0  0  0  0  0  0  0  0
   -1.2487   -0.0436    1.3597 H   0  0  0  0  0  0  0  0  0  0  0  0
   -2.3217   -2.0361    0.7136 H   0  0  0  0  0  0  0  0  0  0  0  0
   -3.4389   -1.0844    1.5460 H   0  0  0  0  0  0  0  0  0  0  0  0
   -3.5435   -1.2112   -0.1494 H   0  0  0  0  0  0  0  0  0  0  0  0
   -1.9837   -0.1148   -1.6454 H   0  0  0  0  0  0  0  0  0  0  0  0
   -0.7899    0.9990   -1.0040 H   0  0  0  0  0  0  0  0  0  0  0  0
    1.2363    1.5948   -1.6824 H   0  0  0  0  0  0  0  0  0  0  0  0
    2.8349    2.0606   -1.0216 H   0  0  0  0  0  0  0  0  0  0  0  0
    2.6933    0.6503   -2.1341 H   0  0  0  0  0  0  0  0  0  0  0  0
    3.2853   -0.8995    1.2541 H   0  0  0  0  0  0  0  0  0  0  0  0
    3.9543   -0.6961   -0.4110 H   0  0  0  0  0  0  0  0  0  0  0  0
    3.9898    0.6748    0.7390 H   0  0  0  0  0  0  0  0  0  0  0  0
    2.0167    1.7945    1.4767 H   0  0  0  0  0  0  0  0  0  0  0  0
    1.0563    0.3331    1.8884 H   0  0  0  0  0  0  0  0  0  0  0  0
    0.4222    1.5799    0.7414 H   0  0  0  0  0  0  0  0  0  0  0  0
   -2.8971    3.0816    1.7628 H   0  0  0  0  0  0  0  0  0  0  0  0
  1  2  1  0
  1  3  1  0
  3  4  1  0
  4  5  2  0
  5  6  1  0
  6  7  1  0
  7  8  2  0
  8  9  1  0
  5 10  1  0
 10 11  1  0
 10 12  1  0
 10 13  1  0
  1 14  1  0
 14 15  1  0
 14 16  2  0
  8  4  1  0
  1 17  1  1
  2 18  1  0
  2 19  1  0
  2 20  1  0
  3 21  1  0
  3 22  1  0
 11 23  1  0
 11 24  1  0
 11 25  1  0
 12 26  1  0
 12 27  1  0
 12 28  1  0
 13 29  1  0
 13 30  1  0
 13 31  1  0
 15 32  1  0
M  CHG  2   2   1   9  -1
M  END
$$$$
