
     RDKit          3D

 59 60  0  0  0  0  0  0  0  0999 V2000
    1.8436    0.8296    1.0024 C   0  0  2  0  0  0  0  0  0  0  0  0
    3.2417    0.2871    0.6810 C   0  0  0  0  0  0  0  0  0  0  0  0
    4.0602    0.3786    1.8294 O   0  0  0  0  0  0  0  0  0  0  0  0
    5.3524   -0.1028    1.5295 C   0  0  0  0  0  0  0  0  0  0  0  0
    6.2038   -0.0010    2.7618 C   0  0  0  0  0  0  0  0  0  0  0  0
    6.2519   -1.0632    3.6802 C   0  0  0  0  0  0  0  0  0  0  0  0
    7.0148   -0.9512    4.8469 C   0  0  0  0  0  0  0  0  0  0  0  0
    7.7233    0.2244    5.1106 C   0  0  0  0  0  0  0  0  0  0  0  0
    7.6658    1.2920    4.2104 C   0  0  0  0  0  0  0  0  0  0  0  0
    6.9042    1.1841    3.0425 C   0  0  0  0  0  0  0  0  0  0  0  0
    0.9466    0.6538   -0.1431 N   0  0  0  0  0  0  0  0  0  0  0  0
   -0.4755    0.8165   -0.0312 C   0  0  0  0  0  0  0  0  0  0  0  0
   -0.9901    1.1520    1.0711 O   0  0  0  0  0  0  0  0  0  0  0  0
   -1.3527    0.6437   -1.2425 C   0  0  2  0  0  0  0  0  0  0  0  0
   -1.6232    2.0165   -1.8917 C   0  0  0  0  0  0  0  0  0  0  0  0
   -2.5402    1.9507   -3.1377 C   0  0  0  0  0  0  0  0  0  0  0  0
   -1.8904    1.1735   -4.2927 C   0  0  0  0  0  0  0  0  0  0  0  0
   -2.8936    3.3702   -3.6000 C   0  0  0  0  0  0  0  0  0  0  0  0
   -2.6092   -0.0065   -0.8576 N   0  0  0  0  0  0  0  0  0  0  0  0
   -2.7557   -1.4362   -0.8354 C   0  0  0  0  0  0  0  0  0  0  0  0
   -1.7423   -2.1678   -1.0077 O   0  0  0  0  0  0  0  0  0  0  0  0
   -4.0446   -2.0444   -0.6123 N   0  0  0  0  0  0  0  0  0  0  0  0
   -4.1216   -3.3581    0.0397 C   0  0  0  0  0  0  0  0  0  0  0  0
   -5.4071   -4.0818   -0.3705 C   0  0  0  0  0  0  0  0  0  0  0  0
   -6.5340   -3.2498   -0.1805 O   0  0  0  0  0  0  0  0  0  0  0  0
   -6.4634   -2.1507   -1.0668 C   0  0  0  0  0  0  0  0  0  0  0  0
   -5.2733   -1.2490   -0.7250 C   0  0  0  0  0  0  0  0  0  0  0  0
    1.9214    2.2570    1.3532 C   0  0  0  0  0  0  0  0  0  0  0  0
    1.9821    3.3793    1.6291 N   0  0  0  0  0  0  0  0  0  0  0  0
    1.4407    0.2665    1.8726 H   0  0  0  0  0  0  0  0  0  0  0  0
    3.1369   -0.7774    0.3682 H   0  0  0  0  0  0  0  0  0  0  0  0
    3.6738    0.8730   -0.1642 H   0  0  0  0  0  0  0  0  0  0  0  0
    5.3128   -1.1664    1.1990 H   0  0  0  0  0  0  0  0  0  0  0  0
    5.8194    0.4967    0.7143 H   0  0  0  0  0  0  0  0  0  0  0  0
    5.6993   -1.9757    3.4933 H   0  0  0  0  0  0  0  0  0  0  0  0
    7.0535   -1.7743    5.5487 H   0  0  0  0  0  0  0  0  0  0  0  0
    8.3120    0.3101    6.0147 H   0  0  0  0  0  0  0  0  0  0  0  0
    8.2083    2.2050    4.4196 H   0  0  0  0  0  0  0  0  0  0  0  0
    6.8596    2.0228    2.3586 H   0  0  0  0  0  0  0  0  0  0  0  0
    1.3434    0.3721   -1.0689 H   0  0  0  0  0  0  0  0  0  0  0  0
   -0.8140    0.0062   -1.9753 H   0  0  0  0  0  0  0  0  0  0  0  0
   -2.0969    2.6780   -1.1318 H   0  0  0  0  0  0  0  0  0  0  0  0
   -0.6528    2.4826   -2.1748 H   0  0  0  0  0  0  0  0  0  0  0  0
   -3.4924    1.4436   -2.8681 H   0  0  0  0  0  0  0  0  0  0  0  0
   -2.5230    1.2367   -5.2038 H   0  0  0  0  0  0  0  0  0  0  0  0
   -1.7948    0.0984   -4.0361 H   0  0  0  0  0  0  0  0  0  0  0  0
   -0.8854    1.5850   -4.5275 H   0  0  0  0  0  0  0  0  0  0  0  0
   -3.5842    3.3319   -4.4695 H   0  0  0  0  0  0  0  0  0  0  0  0
   -3.4040    3.9247   -2.7837 H   0  0  0  0  0  0  0  0  0  0  0  0
   -1.9771    3.9263   -3.8936 H   0  0  0  0  0  0  0  0  0  0  0  0
   -3.3642    0.5862   -0.4448 H   0  0  0  0  0  0  0  0  0  0  0  0
   -3.2554   -3.9948   -0.2418 H   0  0  0  0  0  0  0  0  0  0  0  0
   -4.1112   -3.2168    1.1420 H   0  0  0  0  0  0  0  0  0  0  0  0
   -5.3370   -4.4335   -1.4256 H   0  0  0  0  0  0  0  0  0  0  0  0
   -5.5244   -4.9854    0.2642 H   0  0  0  0  0  0  0  0  0  0  0  0
   -6.4038   -2.4898   -2.1267 H   0  0  0  0  0  0  0  0  0  0  0  0
   -7.3975   -1.5583   -0.9696 H   0  0  0  0  0  0  0  0  0  0  0  0
   -5.4639   -0.7306    0.2395 H   0  0  0  0  0  0  0  0  0  0  0  0
   -5.1727   -0.4896   -1.5309 H   0  0  0  0  0  0  0  0  0  0  0  0
  1  2  1  0
  2  3  1  0
  3  4  1  0
  4  5  1  0
  5  6  2  0
  6  7  1  0
  7  8  2  0
  8  9  1  0
  9 10  2  0
  1 11  1  0
 11 12  1  0
 12 13  2  0
 12 14  1  0
 14 15  1  0
 15 16  1  0
 16 17  1  0
 16 18  1  0
 14 19  1  0
 19 20  1  0
 20 21  2  0
 20 22  1  0
 22 23  1  0
 23 24  1  0
 24 25  1  0
 25 26  1  0
 26 27  1  0
  1 28  1  0
 28 29  3  0
 10  5  1  0
 27 22  1  0
  1 30  1  1
  2 31  1  0
  2 32  1  0
  4 33  1  0
  4 34  1  0
  6 35  1  0
  7 36  1  0
  8 37  1  0
  9 38  1  0
 10 39  1  0
 11 40  1  0
 14 41  1  6
 15 42  1  0
 15 43  1  0
 16 44  1  0
 17 45  1  0
 17 46  1  0
 17 47  1  0
 18 48  1  0
 18 49  1  0
 18 50  1  0
 19 51  1  0
 23 52  1  0
 23 53  1  0
 24 54  1  0
 24 55  1  0
 26 56  1  0
 26 57  1  0
 27 58  1  0
 27 59  1  0
M  END
$$$$
