
     RDKit          3D

 32 33  0  0  0  0  0  0  0  0999 V2000
   -3.7444   -0.3301   -1.2871 C   0  0  0  0  0  0  0  0  0  0  0  0
   -2.9139   -0.2748   -0.0348 C   0  0  0  0  0  0  0  0  0  0  0  0
   -1.5547    0.0489   -0.0951 C   0  0  0  0  0  0  0  0  0  0  0  0
   -0.7901    0.0881    1.0396 N   0  0  0  0  0  0  0  0  0  0  0  0
    0.6494    0.4090    0.9441 C   0  0  1  0  0  0  0  0  0  0  0  0
    1.4586   -0.8307    0.6101 C   0  0  0  0  0  0  0  0  0  0  0  0
    2.6342   -0.2641   -0.1392 C   0  0  2  0  0  0  0  0  0  0  0  0
    3.7300    0.0532    0.7748 N   0  0  0  0  0  0  0  0  0  0  0  0
    4.3755   -0.8383    1.3276 N   0  0  0  0  0  4  0  0  0  0  0  0
    5.0199   -1.7286    1.8798 N   0  0  0  0  0  2  0  0  0  0  0  0
    2.0645    1.0267   -0.7400 C   0  0  1  0  0  0  0  0  0  0  0  0
    1.7435    0.8575   -2.2300 C   0  0  0  0  0  0  0  0  0  0  0  0
    1.1992    2.0454   -2.7345 O   0  0  0  0  0  0  0  0  0  0  0  0
    0.8853    1.3862   -0.0471 O   0  0  0  0  0  0  0  0  0  0  0  0
   -1.3547   -0.2446    2.2458 C   0  0  0  0  0  0  0  0  0  0  0  0
   -0.6594   -0.2569    3.2990 O   0  0  0  0  0  0  0  0  0  0  0  0
   -2.6734   -0.5729    2.3204 N   0  0  0  0  0  0  0  0  0  0  0  0
   -3.4594   -0.5962    1.2130 C   0  0  0  0  0  0  0  0  0  0  0  0
   -4.6756   -0.9135    1.3168 O   0  0  0  0  0  0  0  0  0  0  0  0
   -3.9450   -1.3894   -1.5517 H   0  0  0  0  0  0  0  0  0  0  0  0
   -3.2251    0.1585   -2.1389 H   0  0  0  0  0  0  0  0  0  0  0  0
   -4.7099    0.1952   -1.1282 H   0  0  0  0  0  0  0  0  0  0  0  0
   -1.1110    0.2666   -1.0589 H   0  0  0  0  0  0  0  0  0  0  0  0
    1.0182    0.8305    1.9068 H   0  0  0  0  0  0  0  0  0  0  0  0
    1.7490   -1.3916    1.5252 H   0  0  0  0  0  0  0  0  0  0  0  0
    0.8829   -1.5038   -0.0638 H   0  0  0  0  0  0  0  0  0  0  0  0
    2.9966   -0.9752   -0.9165 H   0  0  0  0  0  0  0  0  0  0  0  0
    2.8010    1.8557   -0.6425 H   0  0  0  0  0  0  0  0  0  0  0  0
    1.0180    0.0241   -2.3671 H   0  0  0  0  0  0  0  0  0  0  0  0
    2.6781    0.6147   -2.7841 H   0  0  0  0  0  0  0  0  0  0  0  0
    1.0011    1.8725   -3.6915 H   0  0  0  0  0  0  0  0  0  0  0  0
   -3.0885   -0.8203    3.2481 H   0  0  0  0  0  0  0  0  0  0  0  0
  1  2  1  0
  2  3  2  0
  3  4  1  0
  4  5  1  0
  5  6  1  0
  6  7  1  0
  7  8  1  0
  8  9  2  0
  9 10  2  0
  7 11  1  0
 11 12  1  0
 12 13  1  0
 11 14  1  0
  4 15  1  0
 15 16  2  0
 15 17  1  0
 17 18  1  0
 18 19  2  0
 18  2  1  0
 14  5  1  0
  1 20  1  0
  1 21  1  0
  1 22  1  0
  3 23  1  0
  5 24  1  1
  6 25  1  0
  6 26  1  0
  7 27  1  6
 11 28  1  6
 12 29  1  0
 12 30  1  0
 13 31  1  0
 17 32  1  0
M  CHG  2   9   1  10  -1
M  END
$$$$
