
     RDKit          3D

 33 33  0  0  0  0  0  0  0  0999 V2000
    4.8749   -0.2296   -1.3096 C   0  0  0  0  0  0  0  0  0  0  0  0
    4.5691   -0.5692    0.1488 C   0  0  0  0  0  0  0  0  0  0  0  0
    3.6243   -1.7737    0.2952 C   0  0  0  0  0  0  0  0  0  0  0  0
    2.1997   -1.4930   -0.1911 C   0  0  0  0  0  0  0  0  0  0  0  0
    1.6387   -0.4015    0.5352 O   0  0  0  0  0  0  0  0  0  0  0  0
    0.3493    0.1098    0.3290 C   0  0  0  0  0  0  0  0  0  0  0  0
   -0.5340   -0.4297   -0.6256 C   0  0  0  0  0  0  0  0  0  0  0  0
   -1.8097    0.1173   -0.7937 C   0  0  0  0  0  0  0  0  0  0  0  0
   -2.2190    1.2142   -0.0196 C   0  0  0  0  0  0  0  0  0  0  0  0
   -3.6028    1.7815   -0.1761 C   0  0  0  0  0  0  0  0  0  0  0  0
   -4.5435    1.1172    0.7819 C   0  0  0  0  0  0  0  0  0  0  0  0
   -4.7596    1.6394    1.9084 O   0  0  0  0  0  0  0  0  0  0  0  0
   -5.1613   -0.1267    0.4414 N   0  0  0  0  0  0  0  0  0  0  0  0
   -5.9861   -0.7490    1.3171 O   0  0  0  0  0  0  0  0  0  0  0  0
   -1.3421    1.7430    0.9399 C   0  0  0  0  0  0  0  0  0  0  0  0
   -0.0669    1.1959    1.1074 C   0  0  0  0  0  0  0  0  0  0  0  0
    5.6589    0.5557   -1.3485 H   0  0  0  0  0  0  0  0  0  0  0  0
    3.9704    0.1619   -1.8196 H   0  0  0  0  0  0  0  0  0  0  0  0
    5.2466   -1.1267   -1.8487 H   0  0  0  0  0  0  0  0  0  0  0  0
    4.1419    0.3221    0.6568 H   0  0  0  0  0  0  0  0  0  0  0  0
    5.5270   -0.8142    0.6568 H   0  0  0  0  0  0  0  0  0  0  0  0
    3.5795   -2.0584    1.3689 H   0  0  0  0  0  0  0  0  0  0  0  0
    4.0370   -2.6432   -0.2614 H   0  0  0  0  0  0  0  0  0  0  0  0
    1.5831   -2.4026   -0.0233 H   0  0  0  0  0  0  0  0  0  0  0  0
    2.2036   -1.2673   -1.2783 H   0  0  0  0  0  0  0  0  0  0  0  0
   -0.2469   -1.2724   -1.2393 H   0  0  0  0  0  0  0  0  0  0  0  0
   -2.4789   -0.3152   -1.5272 H   0  0  0  0  0  0  0  0  0  0  0  0
   -3.5893    2.8779    0.0095 H   0  0  0  0  0  0  0  0  0  0  0  0
   -3.9660    1.6356   -1.2166 H   0  0  0  0  0  0  0  0  0  0  0  0
   -4.9604   -0.5779   -0.4791 H   0  0  0  0  0  0  0  0  0  0  0  0
   -6.8923   -0.4153    1.0933 H   0  0  0  0  0  0  0  0  0  0  0  0
   -1.6467    2.5779    1.5589 H   0  0  0  0  0  0  0  0  0  0  0  0
    0.6014    1.6162    1.8482 H   0  0  0  0  0  0  0  0  0  0  0  0
  1  2  1  0
  2  3  1  0
  3  4  1  0
  4  5  1  0
  5  6  1  0
  6  7  2  0
  7  8  1  0
  8  9  2  0
  9 10  1  0
 10 11  1  0
 11 12  2  0
 11 13  1  0
 13 14  1  0
  9 15  1  0
 15 16  2  0
 16  6  1  0
  1 17  1  0
  1 18  1  0
  1 19  1  0
  2 20  1  0
  2 21  1  0
  3 22  1  0
  3 23  1  0
  4 24  1  0
  4 25  1  0
  7 26  1  0
  8 27  1  0
 10 28  1  0
 10 29  1  0
 13 30  1  0
 14 31  1  0
 15 32  1  0
 16 33  1  0
M  END
$$$$
