
     RDKit          3D

 52 53  0  0  0  0  0  0  0  0999 V2000
   -5.0988   -2.8903   -0.4966 C   0  0  0  0  0  0  0  0  0  0  0  0
   -4.0388   -3.3966    0.4907 C   0  0  2  0  0  0  0  0  0  0  0  0
   -3.1311   -2.3058    0.8729 N   0  0  0  0  0  0  0  0  0  0  0  0
   -2.2798   -1.6031   -0.0499 C   0  0  0  0  0  0  0  0  0  0  0  0
   -2.2430   -1.9398   -1.2651 O   0  0  0  0  0  0  0  0  0  0  0  0
   -1.4536   -0.4354    0.4226 C   0  0  2  0  0  0  0  0  0  0  0  0
   -2.0820    0.8837   -0.0619 C   0  0  0  0  0  0  0  0  0  0  0  0
   -1.2960    2.0765    0.4211 C   0  0  0  0  0  0  0  0  0  0  0  0
   -0.3298    2.6729   -0.4071 C   0  0  0  0  0  0  0  0  0  0  0  0
    0.4520    3.7294    0.0688 C   0  0  0  0  0  0  0  0  0  0  0  0
    0.2792    4.1999    1.3742 C   0  0  0  0  0  0  0  0  0  0  0  0
    1.0679    5.2509    1.8364 O   0  0  0  0  0  0  0  0  0  0  0  0
   -0.6823    3.6085    2.2051 C   0  0  0  0  0  0  0  0  0  0  0  0
   -1.4633    2.5494    1.7327 C   0  0  0  0  0  0  0  0  0  0  0  0
   -0.0792   -0.5596   -0.0766 N   0  0  0  0  0  0  0  0  0  0  0  0
    1.0577   -0.1728    0.7045 C   0  0  0  0  0  0  0  0  0  0  0  0
    0.9664   -0.0704    1.9590 O   0  0  0  0  0  0  0  0  0  0  0  0
    2.2600    0.1211    0.0575 O   0  0  0  0  0  0  0  0  0  0  0  0
    3.4006    0.6185    0.7478 C   0  0  0  0  0  0  0  0  0  0  0  0
    4.4618    0.9774   -0.2494 C   0  0  0  0  0  0  0  0  0  0  0  0
    4.4352    2.2296   -0.8854 C   0  0  0  0  0  0  0  0  0  0  0  0
    5.4006    2.5524   -1.8442 C   0  0  0  0  0  0  0  0  0  0  0  0
    6.3898    1.6246   -2.1822 C   0  0  0  0  0  0  0  0  0  0  0  0
    6.4121    0.3703   -1.5656 C   0  0  0  0  0  0  0  0  0  0  0  0
    5.4482    0.0434   -0.6063 C   0  0  0  0  0  0  0  0  0  0  0  0
   -3.2786   -4.5987   -0.0408 C   0  0  0  0  0  0  0  0  0  0  0  0
   -2.0595   -4.6404    0.0427 O   0  0  0  0  0  0  0  0  0  0  0  0
   -4.0081   -5.7886   -0.5980 C   0  0  0  0  0  0  0  0  0  0  0  0
   -4.8869   -6.2850    0.3469 F   0  0  0  0  0  0  0  0  0  0  0  0
   -4.6634   -2.7194   -1.5030 H   0  0  0  0  0  0  0  0  0  0  0  0
   -5.9220   -3.6301   -0.5883 H   0  0  0  0  0  0  0  0  0  0  0  0
   -5.5360   -1.9381   -0.1275 H   0  0  0  0  0  0  0  0  0  0  0  0
   -4.5764   -3.7303    1.4056 H   0  0  0  0  0  0  0  0  0  0  0  0
   -3.1236   -2.0161    1.8770 H   0  0  0  0  0  0  0  0  0  0  0  0
   -1.4521   -0.4376    1.5347 H   0  0  0  0  0  0  0  0  0  0  0  0
   -3.1257    0.9573    0.3168 H   0  0  0  0  0  0  0  0  0  0  0  0
   -2.1383    0.8903   -1.1733 H   0  0  0  0  0  0  0  0  0  0  0  0
   -0.1698    2.3080   -1.4141 H   0  0  0  0  0  0  0  0  0  0  0  0
    1.1978    4.1780   -0.5750 H   0  0  0  0  0  0  0  0  0  0  0  0
    0.9683    5.6134    2.7774 H   0  0  0  0  0  0  0  0  0  0  0  0
   -0.8193    3.9633    3.2186 H   0  0  0  0  0  0  0  0  0  0  0  0
   -2.1897    2.0896    2.3913 H   0  0  0  0  0  0  0  0  0  0  0  0
    0.0690   -0.6943   -1.1027 H   0  0  0  0  0  0  0  0  0  0  0  0
    3.1203    1.5201    1.3364 H   0  0  0  0  0  0  0  0  0  0  0  0
    3.7746   -0.1524    1.4566 H   0  0  0  0  0  0  0  0  0  0  0  0
    3.6677    2.9533   -0.6395 H   0  0  0  0  0  0  0  0  0  0  0  0
    5.3795    3.5204   -2.3279 H   0  0  0  0  0  0  0  0  0  0  0  0
    7.1355    1.8754   -2.9255 H   0  0  0  0  0  0  0  0  0  0  0  0
    7.1739   -0.3502   -1.8338 H   0  0  0  0  0  0  0  0  0  0  0  0
    5.4706   -0.9356   -0.1436 H   0  0  0  0  0  0  0  0  0  0  0  0
   -3.2906   -6.5901   -0.8759 H   0  0  0  0  0  0  0  0  0  0  0  0
   -4.5709   -5.4971   -1.5087 H   0  0  0  0  0  0  0  0  0  0  0  0
  1  2  1  0
  2  3  1  0
  3  4  1  0
  4  5  2  0
  4  6  1  0
  6  7  1  0
  7  8  1  0
  8  9  2  0
  9 10  1  0
 10 11  2  0
 11 12  1  0
 11 13  1  0
 13 14  2  0
  6 15  1  0
 15 16  1  0
 16 17  2  0
 16 18  1  0
 18 19  1  0
 19 20  1  0
 20 21  2  0
 21 22  1  0
 22 23  2  0
 23 24  1  0
 24 25  2  0
  2 26  1  0
 26 27  2  0
 26 28  1  0
 28 29  1  0
 14  8  1  0
 25 20  1  0
  1 30  1  0
  1 31  1  0
  1 32  1  0
  2 33  1  1
  3 34  1  0
  6 35  1  1
  7 36  1  0
  7 37  1  0
  9 38  1  0
 10 39  1  0
 12 40  1  0
 13 41  1  0
 14 42  1  0
 15 43  1  0
 19 44  1  0
 19 45  1  0
 21 46  1  0
 22 47  1  0
 23 48  1  0
 24 49  1  0
 25 50  1  0
 28 51  1  0
 28 52  1  0
M  END
$$$$
