
     RDKit          3D

 36 38  0  0  0  0  0  0  0  0999 V2000
    4.4624    3.0001   -0.9471 Br  0  0  0  0  0  0  0  0  0  0  0  0
    2.5643    2.7607   -0.8280 C   0  0  0  0  0  0  0  0  0  0  0  0
    1.9726    1.6575   -0.1854 C   0  0  0  0  0  0  0  0  0  0  0  0
    2.7726    0.6107    0.3953 N   0  0  0  0  0  0  0  0  0  0  0  0
    2.2366   -0.4192    1.2911 C   0  0  0  0  0  0  0  0  0  0  0  0
    2.4331   -1.8244    0.6938 C   0  0  0  0  0  0  0  0  0  0  0  0
    1.2574   -2.2605   -0.1906 C   0  0  0  0  0  0  0  0  0  0  0  0
    0.1137   -2.6476    0.6444 N   0  0  0  0  0  0  0  0  0  0  0  0
   -1.3467   -2.7673   -0.2989 S   0  0  0  0  0  6  0  0  0  0  0  0
   -2.1671   -3.9225    0.2042 O   0  0  0  0  0  0  0  0  0  0  0  0
   -1.0408   -2.9921   -1.7546 O   0  0  0  0  0  0  0  0  0  0  0  0
   -2.2467   -1.2674   -0.1043 C   0  0  0  0  0  0  0  0  0  0  0  0
   -3.4213   -1.2151    0.6592 C   0  0  0  0  0  0  0  0  0  0  0  0
   -4.0401    0.0152    0.9071 C   0  0  0  0  0  0  0  0  0  0  0  0
   -3.4610    1.2005    0.4402 C   0  0  0  0  0  0  0  0  0  0  0  0
   -2.2683    1.1585   -0.2954 C   0  0  0  0  0  0  0  0  0  0  0  0
   -1.6130    2.3800   -0.6765 N   0  0  0  0  0  0  0  0  0  0  0  0
   -0.1831    2.5160   -0.7143 C   0  0  0  0  0  0  0  0  0  0  0  0
    0.3787    3.5925   -1.3217 N   0  0  0  0  0  0  0  0  0  0  0  0
    1.7279    3.7315   -1.3861 C   0  0  0  0  0  0  0  0  0  0  0  0
    0.6171    1.5763   -0.1404 N   0  0  0  0  0  0  0  0  0  0  0  0
   -1.7110   -0.0871   -0.6232 C   0  0  0  0  0  0  0  0  0  0  0  0
    3.8008    0.5876    0.2161 H   0  0  0  0  0  0  0  0  0  0  0  0
    2.7934   -0.3618    2.2510 H   0  0  0  0  0  0  0  0  0  0  0  0
    1.1670   -0.2380    1.5324 H   0  0  0  0  0  0  0  0  0  0  0  0
    3.3711   -1.8519    0.0972 H   0  0  0  0  0  0  0  0  0  0  0  0
    2.5565   -2.5595    1.5193 H   0  0  0  0  0  0  0  0  0  0  0  0
    0.9953   -1.4270   -0.8745 H   0  0  0  0  0  0  0  0  0  0  0  0
    1.5747   -3.1267   -0.8135 H   0  0  0  0  0  0  0  0  0  0  0  0
    0.3071   -3.5968    1.0397 H   0  0  0  0  0  0  0  0  0  0  0  0
   -3.8502   -2.1176    1.0746 H   0  0  0  0  0  0  0  0  0  0  0  0
   -4.9491    0.0536    1.4933 H   0  0  0  0  0  0  0  0  0  0  0  0
   -3.9203    2.1509    0.6810 H   0  0  0  0  0  0  0  0  0  0  0  0
   -2.1952    3.2305   -0.8491 H   0  0  0  0  0  0  0  0  0  0  0  0
    2.1511    4.5973   -1.8779 H   0  0  0  0  0  0  0  0  0  0  0  0
   -0.8396   -0.1369   -1.2586 H   0  0  0  0  0  0  0  0  0  0  0  0
  1  2  1  0
  2  3  2  0
  3  4  1  0
  4  5  1  0
  5  6  1  0
  6  7  1  0
  7  8  1  0
  8  9  1  0
  9 10  2  0
  9 11  2  0
  9 12  1  0
 12 13  1  0
 13 14  2  0
 14 15  1  0
 15 16  2  0
 16 17  1  0
 17 18  1  0
 18 19  1  0
 19 20  2  0
 18 21  2  0
 16 22  1  0
 20  2  1  0
 21  3  1  0
 22 12  2  0
  4 23  1  0
  5 24  1  0
  5 25  1  0
  6 26  1  0
  6 27  1  0
  7 28  1  0
  7 29  1  0
  8 30  1  0
 13 31  1  0
 14 32  1  0
 15 33  1  0
 17 34  1  0
 20 35  1  0
 22 36  1  0
M  END
$$$$
