
     RDKit          3D

 50 53  0  0  0  0  0  0  0  0999 V2000
    4.7899    2.0579    2.9176 C   0  0  0  0  0  0  0  0  0  0  0  0
    4.3717    1.2020    1.8616 O   0  0  0  0  0  0  0  0  0  0  0  0
    5.2540    0.3550    1.1818 C   0  0  0  0  0  0  0  0  0  0  0  0
    6.4772    0.3319    1.4925 O   0  0  0  0  0  0  0  0  0  0  0  0
    4.7623   -0.4889    0.1281 N   0  0  0  0  0  0  0  0  0  0  0  0
    5.6621   -1.3985   -0.5815 C   0  0  0  0  0  0  0  0  0  0  0  0
    3.3576   -0.5142   -0.1651 C   0  0  0  0  0  0  0  0  0  0  0  0
    2.8319    0.2354   -1.2315 C   0  0  0  0  0  0  0  0  0  0  0  0
    3.6733    1.0500   -2.0522 N   0  0  0  0  0  0  0  0  0  0  0  0
    1.4980    0.1948   -1.4849 N   0  0  0  0  0  0  0  0  0  0  0  0
    0.6536   -0.5553   -0.7308 C   0  0  0  0  0  0  0  0  0  0  0  0
    1.1461   -1.2862    0.3032 N   0  0  0  0  0  0  0  0  0  0  0  0
    2.4707   -1.2867    0.6058 C   0  0  0  0  0  0  0  0  0  0  0  0
    2.9352   -2.0805    1.7010 N   0  0  0  0  0  0  0  0  0  0  0  0
   -0.7893   -0.5851   -1.0203 C   0  0  0  0  0  0  0  0  0  0  0  0
   -1.6794   -1.3147   -0.2994 N   0  0  0  0  0  0  0  0  0  0  0  0
   -2.8899   -1.1207   -0.8122 N   0  0  0  0  0  0  0  0  0  0  0  0
   -4.1157   -1.6813   -0.2523 C   0  0  0  0  0  0  0  0  0  0  0  0
   -4.6541   -0.7682    0.8162 C   0  0  0  0  0  0  0  0  0  0  0  0
   -5.6489    0.1840    0.5227 C   0  0  0  0  0  0  0  0  0  0  0  0
   -6.1767    0.2749   -0.7241 F   0  0  0  0  0  0  0  0  0  0  0  0
   -6.1066    1.0506    1.5211 C   0  0  0  0  0  0  0  0  0  0  0  0
   -5.5725    0.9820    2.8104 C   0  0  0  0  0  0  0  0  0  0  0  0
   -4.5762    0.0484    3.1053 C   0  0  0  0  0  0  0  0  0  0  0  0
   -4.1145   -0.8207    2.1125 C   0  0  0  0  0  0  0  0  0  0  0  0
   -2.7820   -0.2624   -1.8390 C   0  0  0  0  0  0  0  0  0  0  0  0
   -1.4791    0.0993   -2.0122 C   0  0  0  0  0  0  0  0  0  0  0  0
   -1.1128    0.9950   -3.0156 C   0  0  0  0  0  0  0  0  0  0  0  0
   -2.1399    1.5021   -3.8325 C   0  0  0  0  0  0  0  0  0  0  0  0
   -3.4783    1.1005   -3.6141 C   0  0  0  0  0  0  0  0  0  0  0  0
   -3.7851    0.2200   -2.6145 N   0  0  0  0  0  0  0  0  0  0  0  0
    5.2136    1.4561    3.7493 H   0  0  0  0  0  0  0  0  0  0  0  0
    5.5521    2.7753    2.5464 H   0  0  0  0  0  0  0  0  0  0  0  0
    3.9147    2.6259    3.2944 H   0  0  0  0  0  0  0  0  0  0  0  0
    5.1528   -1.8557   -1.4572 H   0  0  0  0  0  0  0  0  0  0  0  0
    5.9906   -2.2079    0.1037 H   0  0  0  0  0  0  0  0  0  0  0  0
    6.5508   -0.8427   -0.9486 H   0  0  0  0  0  0  0  0  0  0  0  0
    3.2609    1.5962   -2.8408 H   0  0  0  0  0  0  0  0  0  0  0  0
    4.7004    1.1257   -1.8825 H   0  0  0  0  0  0  0  0  0  0  0  0
    3.9455   -2.1257    1.9591 H   0  0  0  0  0  0  0  0  0  0  0  0
    2.2569   -2.6419    2.2622 H   0  0  0  0  0  0  0  0  0  0  0  0
   -3.8997   -2.6821    0.1812 H   0  0  0  0  0  0  0  0  0  0  0  0
   -4.8650   -1.8388   -1.0581 H   0  0  0  0  0  0  0  0  0  0  0  0
   -6.8745    1.7792    1.2949 H   0  0  0  0  0  0  0  0  0  0  0  0
   -5.9280    1.6551    3.5799 H   0  0  0  0  0  0  0  0  0  0  0  0
   -4.1586    0.0004    4.1027 H   0  0  0  0  0  0  0  0  0  0  0  0
   -3.3344   -1.5328    2.3526 H   0  0  0  0  0  0  0  0  0  0  0  0
   -0.0875    1.2993   -3.1700 H   0  0  0  0  0  0  0  0  0  0  0  0
   -1.9062    2.2008   -4.6252 H   0  0  0  0  0  0  0  0  0  0  0  0
   -4.2671    1.4933   -4.2415 H   0  0  0  0  0  0  0  0  0  0  0  0
  1  2  1  0
  2  3  1  0
  3  4  2  0
  3  5  1  0
  5  6  1  0
  5  7  1  0
  7  8  2  0
  8  9  1  0
  8 10  1  0
 10 11  2  0
 11 12  1  0
 12 13  2  0
 13 14  1  0
 11 15  1  0
 15 16  2  0
 16 17  1  0
 17 18  1  0
 18 19  1  0
 19 20  2  0
 20 21  1  0
 20 22  1  0
 22 23  2  0
 23 24  1  0
 24 25  2  0
 17 26  1  0
 26 27  2  0
 27 28  1  0
 28 29  2  0
 29 30  1  0
 30 31  2  0
 13  7  1  0
 27 15  1  0
 25 19  1  0
 31 26  1  0
  1 32  1  0
  1 33  1  0
  1 34  1  0
  6 35  1  0
  6 36  1  0
  6 37  1  0
  9 38  1  0
  9 39  1  0
 14 40  1  0
 14 41  1  0
 18 42  1  0
 18 43  1  0
 22 44  1  0
 23 45  1  0
 24 46  1  0
 25 47  1  0
 28 48  1  0
 29 49  1  0
 30 50  1  0
M  END
$$$$
