
     RDKit          3D

 46 50  0  0  0  0  0  0  0  0999 V2000
    2.9760    0.2533    3.8863 O   0  0  0  0  0  0  0  0  0  0  0  0
    3.7267    0.1515    2.8809 C   0  0  0  0  0  0  0  0  0  0  0  0
    5.0990   -0.2226    2.9482 N   0  0  0  0  0  0  0  0  0  0  0  0
    5.4699   -0.2154    1.7068 C   0  0  0  0  0  0  0  0  0  0  0  0
    6.7602   -0.5354    1.2534 C   0  0  0  0  0  0  0  0  0  0  0  0
    7.0241   -0.5057   -0.1321 C   0  0  0  0  0  0  0  0  0  0  0  0
    5.9921   -0.1597   -1.0220 C   0  0  0  0  0  0  0  0  0  0  0  0
    4.7209    0.1557   -0.5509 C   0  0  0  0  0  0  0  0  0  0  0  0
    3.7348    0.5138   -1.8633 S   0  0  0  0  0  0  0  0  0  0  0  0
    4.9790    0.2506   -2.9797 C   0  0  0  0  0  0  0  0  0  0  0  0
    6.1363   -0.1069   -2.3712 N   0  0  0  0  0  0  0  0  0  0  0  0
    4.4535    0.1336    0.8194 C   0  0  0  0  0  0  0  0  0  0  0  0
    3.3385    0.3850    1.4977 C   0  0  0  0  0  0  0  0  0  0  0  0
    1.9751    0.7389    0.9780 C   0  0  0  0  0  0  0  0  0  0  0  0
    1.3503   -0.4152    0.3287 N   0  0  0  0  0  0  0  0  0  0  0  0
    0.0817   -0.3478   -0.3485 C   0  0  0  0  0  0  0  0  0  0  0  0
   -0.4034   -1.4856   -1.0129 C   0  0  0  0  0  0  0  0  0  0  0  0
   -1.6310   -1.4504   -1.6800 C   0  0  0  0  0  0  0  0  0  0  0  0
   -2.3940   -0.2765   -1.6895 C   0  0  0  0  0  0  0  0  0  0  0  0
   -1.9159    0.8640   -1.0335 C   0  0  0  0  0  0  0  0  0  0  0  0
   -0.6887    0.8311   -0.3650 C   0  0  0  0  0  0  0  0  0  0  0  0
   -3.9473   -0.2271   -2.5168 S   0  0  0  0  0  6  0  0  0  0  0  0
   -4.4988   -1.6151   -2.6876 O   0  0  0  0  0  0  0  0  0  0  0  0
   -3.7614    0.3985   -3.8701 O   0  0  0  0  0  0  0  0  0  0  0  0
   -5.0740    0.7150   -1.5967 N   0  0  0  0  0  0  0  0  0  0  0  0
   -5.3940    0.3957   -0.2369 C   0  0  0  0  0  0  0  0  0  0  0  0
   -6.2761    1.2089    0.4877 C   0  0  0  0  0  0  0  0  0  0  0  0
   -6.5717    0.8883    1.8144 C   0  0  0  0  0  0  0  0  0  0  0  0
   -5.9886   -0.2343    2.4046 C   0  0  0  0  0  0  0  0  0  0  0  0
   -5.1149   -1.0234    1.6540 C   0  0  0  0  0  0  0  0  0  0  0  0
   -4.8398   -0.6951    0.3635 N   0  0  0  0  0  0  0  0  0  0  0  0
    7.5410   -0.8054    1.9531 H   0  0  0  0  0  0  0  0  0  0  0  0
    8.0108   -0.7508   -0.5038 H   0  0  0  0  0  0  0  0  0  0  0  0
    4.8790    0.3507   -4.0517 H   0  0  0  0  0  0  0  0  0  0  0  0
    2.0694    1.5768    0.2557 H   0  0  0  0  0  0  0  0  0  0  0  0
    1.3365    1.0765    1.8217 H   0  0  0  0  0  0  0  0  0  0  0  0
    1.8556   -1.3316    0.3359 H   0  0  0  0  0  0  0  0  0  0  0  0
    0.1726   -2.4025   -1.0156 H   0  0  0  0  0  0  0  0  0  0  0  0
   -1.9841   -2.3391   -2.1872 H   0  0  0  0  0  0  0  0  0  0  0  0
   -2.4952    1.7787   -1.0363 H   0  0  0  0  0  0  0  0  0  0  0  0
   -0.3519    1.7275    0.1371 H   0  0  0  0  0  0  0  0  0  0  0  0
   -5.5088    1.5482   -2.0526 H   0  0  0  0  0  0  0  0  0  0  0  0
   -6.7267    2.0807    0.0303 H   0  0  0  0  0  0  0  0  0  0  0  0
   -7.2508    1.5093    2.3842 H   0  0  0  0  0  0  0  0  0  0  0  0
   -6.2114   -0.4902    3.4324 H   0  0  0  0  0  0  0  0  0  0  0  0
   -4.6548   -1.8966    2.0967 H   0  0  0  0  0  0  0  0  0  0  0  0
  1  2  2  0
  2  3  1  0
  3  4  2  0
  4  5  1  0
  5  6  2  0
  6  7  1  0
  7  8  2  0
  8  9  1  0
  9 10  1  0
 10 11  2  0
  8 12  1  0
 12 13  2  0
 13 14  1  0
 14 15  1  0
 15 16  1  0
 16 17  2  0
 17 18  1  0
 18 19  2  0
 19 20  1  0
 20 21  2  0
 19 22  1  0
 22 23  2  0
 22 24  2  0
 22 25  1  0
 25 26  1  0
 26 27  2  0
 27 28  1  0
 28 29  2  0
 29 30  1  0
 30 31  2  0
 13  2  1  0
 21 16  1  0
 31 26  1  0
 12  4  1  0
 11  7  1  0
  5 32  1  0
  6 33  1  0
 10 34  1  0
 14 35  1  0
 14 36  1  0
 15 37  1  0
 17 38  1  0
 18 39  1  0
 20 40  1  0
 21 41  1  0
 25 42  1  0
 27 43  1  0
 28 44  1  0
 29 45  1  0
 30 46  1  0
M  END
$$$$
