
     RDKit          3D

 31 33  0  0  0  0  0  0  0  0999 V2000
    3.3423    0.8197   -3.1987 N   0  0  0  0  0  0  0  0  0  0  0  0
    2.6555    0.7414   -1.9520 C   0  0  0  0  0  0  0  0  0  0  0  0
    2.8674   -0.3103   -1.1259 N   0  0  0  0  0  0  0  0  0  0  0  0
    2.2138   -0.4181    0.0586 C   0  0  0  0  0  0  0  0  0  0  0  0
    1.2708    0.5688    0.4518 C   0  0  0  0  0  0  0  0  0  0  0  0
    1.1453    1.7051   -0.3941 C   0  0  0  0  0  0  0  0  0  0  0  0
    0.4323    2.8817   -0.0077 N   0  0  0  0  0  0  0  0  0  0  0  0
    1.8192    1.7383   -1.5741 N   0  0  0  0  0  0  0  0  0  0  0  0
    0.5015    0.3346    1.6299 C   0  0  0  0  0  0  0  0  0  0  0  0
   -0.9657    1.2799    2.0816 S   0  0  0  0  0  0  0  0  0  0  0  0
   -2.0598    0.2249    1.1286 C   0  0  0  0  0  0  0  0  0  0  0  0
   -2.6403   -0.9027    1.7239 C   0  0  0  0  0  0  0  0  0  0  0  0
   -3.4871   -1.7301    0.9795 C   0  0  0  0  0  0  0  0  0  0  0  0
   -3.7592   -1.4305   -0.3590 C   0  0  0  0  0  0  0  0  0  0  0  0
   -3.1864   -0.3018   -0.9535 C   0  0  0  0  0  0  0  0  0  0  0  0
   -2.3395    0.5269   -0.2107 C   0  0  0  0  0  0  0  0  0  0  0  0
    0.7969   -0.7712    2.4405 C   0  0  0  0  0  0  0  0  0  0  0  0
    1.7825   -1.6843    2.0734 C   0  0  0  0  0  0  0  0  0  0  0  0
    2.4708   -1.5229    0.8750 C   0  0  0  0  0  0  0  0  0  0  0  0
    3.1939    1.6352   -3.8337 H   0  0  0  0  0  0  0  0  0  0  0  0
    3.9990    0.0616   -3.4891 H   0  0  0  0  0  0  0  0  0  0  0  0
    0.4556    3.2175    0.9792 H   0  0  0  0  0  0  0  0  0  0  0  0
    0.1519    3.5746   -0.7367 H   0  0  0  0  0  0  0  0  0  0  0  0
   -2.4325   -1.1409    2.7592 H   0  0  0  0  0  0  0  0  0  0  0  0
   -3.9319   -2.6030    1.4396 H   0  0  0  0  0  0  0  0  0  0  0  0
   -4.4145   -2.0715   -0.9346 H   0  0  0  0  0  0  0  0  0  0  0  0
   -3.3989   -0.0691   -1.9889 H   0  0  0  0  0  0  0  0  0  0  0  0
   -1.9018    1.3993   -0.6776 H   0  0  0  0  0  0  0  0  0  0  0  0
    0.2278   -0.9496    3.3445 H   0  0  0  0  0  0  0  0  0  0  0  0
    1.9863   -2.5414    2.7023 H   0  0  0  0  0  0  0  0  0  0  0  0
    3.2047   -2.2622    0.5781 H   0  0  0  0  0  0  0  0  0  0  0  0
  1  2  1  0
  2  3  2  0
  3  4  1  0
  4  5  2  0
  5  6  1  0
  6  7  1  0
  6  8  2  0
  5  9  1  0
  9 10  1  0
 10 11  1  0
 11 12  2  0
 12 13  1  0
 13 14  2  0
 14 15  1  0
 15 16  2  0
  9 17  2  0
 17 18  1  0
 18 19  2  0
  8  2  1  0
 16 11  1  0
 19  4  1  0
  1 20  1  0
  1 21  1  0
  7 22  1  0
  7 23  1  0
 12 24  1  0
 13 25  1  0
 14 26  1  0
 15 27  1  0
 16 28  1  0
 17 29  1  0
 18 30  1  0
 19 31  1  0
M  END
$$$$
