
     RDKit          3D

 59 63  0  0  0  0  0  0  0  0999 V2000
   -5.7760    4.3086   -2.0151 C   0  0  0  0  0  0  0  0  0  0  0  0
   -5.9649    2.9569   -2.4209 O   0  0  0  0  0  0  0  0  0  0  0  0
   -5.3702    1.8518   -1.7942 C   0  0  0  0  0  0  0  0  0  0  0  0
   -5.6425    0.5747   -2.2984 C   0  0  0  0  0  0  0  0  0  0  0  0
   -5.0723   -0.5578   -1.7102 C   0  0  0  0  0  0  0  0  0  0  0  0
   -4.2055   -0.4272   -0.6161 C   0  0  0  0  0  0  0  0  0  0  0  0
   -3.9482    0.8495   -0.0930 C   0  0  0  0  0  0  0  0  0  0  0  0
   -4.5183    1.9827   -0.6807 C   0  0  0  0  0  0  0  0  0  0  0  0
   -3.6489   -1.5979    0.0010 N   0  0  0  0  0  0  0  0  0  0  0  0
   -4.3623   -2.6849    0.2645 N   0  0  0  0  0  0  0  0  0  0  0  0
   -3.5494   -3.5892    0.8556 C   0  0  0  0  0  0  0  0  0  0  0  0
   -3.9800   -4.9483    1.2316 C   0  0  0  0  0  0  0  0  0  0  0  0
   -5.3330   -5.3598    1.0316 N   0  0  0  0  0  0  0  0  0  0  0  0
   -3.1564   -5.7602    1.7303 O   0  0  0  0  0  0  0  0  0  0  0  0
   -2.2813   -3.0403    0.9817 C   0  0  0  0  0  0  0  0  0  0  0  0
   -2.3777   -1.8026    0.4106 C   0  0  0  0  0  0  0  0  0  0  0  0
   -1.1737   -1.0067    0.1472 C   0  0  0  0  0  0  0  0  0  0  0  0
   -1.2074   -0.0087   -0.6218 O   0  0  0  0  0  0  0  0  0  0  0  0
    0.0729   -1.4679    0.7131 N   0  0  0  0  0  0  0  0  0  0  0  0
    0.0620   -2.5602    1.7103 C   0  0  0  0  0  0  0  0  0  0  0  0
   -0.9715   -3.6587    1.3734 C   0  0  0  0  0  0  0  0  0  0  0  0
    1.2905   -0.7345    0.4945 C   0  0  0  0  0  0  0  0  0  0  0  0
    2.4255   -1.3889   -0.0068 C   0  0  0  0  0  0  0  0  0  0  0  0
    3.6134   -0.6823   -0.2144 C   0  0  0  0  0  0  0  0  0  0  0  0
    3.6813    0.6890    0.0768 C   0  0  0  0  0  0  0  0  0  0  0  0
    2.5504    1.3414    0.5886 C   0  0  0  0  0  0  0  0  0  0  0  0
    1.3622    0.6351    0.7955 C   0  0  0  0  0  0  0  0  0  0  0  0
    4.9043    1.4180   -0.1233 N   0  0  0  0  0  0  0  0  0  0  0  0
    5.6228    1.9014    1.0650 C   0  0  0  0  0  0  0  0  0  0  0  0
    6.6183    3.0107    0.7189 C   0  0  0  0  0  0  0  0  0  0  0  0
    7.5345    2.5607   -0.4176 C   0  0  0  0  0  0  0  0  0  0  0  0
    6.7274    2.3118   -1.6917 C   0  0  0  0  0  0  0  0  0  0  0  0
    5.5185    1.4583   -1.4307 C   0  0  0  0  0  0  0  0  0  0  0  0
    4.9888    0.8506   -2.4006 O   0  0  0  0  0  0  0  0  0  0  0  0
   -6.1363    4.4487   -0.9741 H   0  0  0  0  0  0  0  0  0  0  0  0
   -4.7023    4.5827   -2.0884 H   0  0  0  0  0  0  0  0  0  0  0  0
   -6.3588    4.9732   -2.6852 H   0  0  0  0  0  0  0  0  0  0  0  0
   -6.3012    0.4597   -3.1499 H   0  0  0  0  0  0  0  0  0  0  0  0
   -5.2965   -1.5373   -2.1137 H   0  0  0  0  0  0  0  0  0  0  0  0
   -3.3159    0.9656    0.7782 H   0  0  0  0  0  0  0  0  0  0  0  0
   -4.2962    2.9530   -0.2582 H   0  0  0  0  0  0  0  0  0  0  0  0
   -6.0403   -4.7105    0.6217 H   0  0  0  0  0  0  0  0  0  0  0  0
   -5.6328   -6.3241    1.2974 H   0  0  0  0  0  0  0  0  0  0  0  0
    1.0655   -3.0315    1.7880 H   0  0  0  0  0  0  0  0  0  0  0  0
   -0.1814   -2.1278    2.7051 H   0  0  0  0  0  0  0  0  0  0  0  0
   -0.5967   -4.2712    0.5257 H   0  0  0  0  0  0  0  0  0  0  0  0
   -1.1050   -4.3131    2.2599 H   0  0  0  0  0  0  0  0  0  0  0  0
    2.3858   -2.4446   -0.2436 H   0  0  0  0  0  0  0  0  0  0  0  0
    4.4834   -1.2029   -0.5942 H   0  0  0  0  0  0  0  0  0  0  0  0
    2.5899    2.3981    0.8209 H   0  0  0  0  0  0  0  0  0  0  0  0
    0.5005    1.1513    1.1995 H   0  0  0  0  0  0  0  0  0  0  0  0
    4.9051    2.2947    1.8171 H   0  0  0  0  0  0  0  0  0  0  0  0
    6.1671    1.0495    1.5278 H   0  0  0  0  0  0  0  0  0  0  0  0
    6.0683    3.9307    0.4217 H   0  0  0  0  0  0  0  0  0  0  0  0
    7.2305    3.2473    1.6157 H   0  0  0  0  0  0  0  0  0  0  0  0
    8.2943    3.3478   -0.6135 H   0  0  0  0  0  0  0  0  0  0  0  0
    8.0713    1.6313   -0.1243 H   0  0  0  0  0  0  0  0  0  0  0  0
    6.3891    3.2844   -2.1097 H   0  0  0  0  0  0  0  0  0  0  0  0
    7.3794    1.8195   -2.4452 H   0  0  0  0  0  0  0  0  0  0  0  0
  1  2  1  0
  2  3  1  0
  3  4  2  0
  4  5  1  0
  5  6  2  0
  6  7  1  0
  7  8  2  0
  6  9  1  0
  9 10  1  0
 10 11  2  0
 11 12  1  0
 12 13  1  0
 12 14  2  0
 11 15  1  0
 15 16  2  0
 16 17  1  0
 17 18  2  0
 17 19  1  0
 19 20  1  0
 20 21  1  0
 19 22  1  0
 22 23  2  0
 23 24  1  0
 24 25  2  0
 25 26  1  0
 26 27  2  0
 25 28  1  0
 28 29  1  0
 29 30  1  0
 30 31  1  0
 31 32  1  0
 32 33  1  0
 33 34  2  0
  8  3  1  0
 16  9  1  0
 27 22  1  0
 33 28  1  0
 21 15  1  0
  1 35  1  0
  1 36  1  0
  1 37  1  0
  4 38  1  0
  5 39  1  0
  7 40  1  0
  8 41  1  0
 13 42  1  0
 13 43  1  0
 20 44  1  0
 20 45  1  0
 21 46  1  0
 21 47  1  0
 23 48  1  0
 24 49  1  0
 26 50  1  0
 27 51  1  0
 29 52  1  0
 29 53  1  0
 30 54  1  0
 30 55  1  0
 31 56  1  0
 31 57  1  0
 32 58  1  0
 32 59  1  0
M  END
$$$$
