
     RDKit          3D

 50 53  0  0  0  0  0  0  0  0999 V2000
    5.6527    3.9734    1.7882 N   0  0  0  0  0  0  0  0  0  0  0  0
    4.4606    3.7507    0.5567 S   0  0  0  0  0  6  0  0  0  0  0  0
    3.2206    4.5214    0.9139 O   0  0  0  0  0  0  0  0  0  0  0  0
    4.9887    4.2688   -0.7517 O   0  0  0  0  0  0  0  0  0  0  0  0
    4.0756    2.0388    0.4085 C   0  0  0  0  0  0  0  0  0  0  0  0
    3.0645    1.4739    1.1961 C   0  0  0  0  0  0  0  0  0  0  0  0
    2.7662    0.1124    1.0889 C   0  0  0  0  0  0  0  0  0  0  0  0
    3.4701   -0.6999    0.1816 C   0  0  0  0  0  0  0  0  0  0  0  0
    3.1911   -2.1052    0.0613 N   0  0  0  0  0  0  0  0  0  0  0  0
    1.8746   -2.6708    0.1341 C   0  0  0  0  0  0  0  0  0  0  0  0
    0.7637   -1.8624    0.1034 N   0  0  0  0  0  0  0  0  0  0  0  0
   -0.5023   -2.3774    0.1477 C   0  0  0  0  0  0  0  0  0  0  0  0
   -1.6282   -1.5511    0.1293 O   0  0  0  0  0  0  0  0  0  0  0  0
   -1.5330   -0.1304    0.0743 C   0  0  0  0  0  0  0  0  0  0  0  0
   -2.9365    0.4919    0.0673 C   0  0  0  0  0  0  0  0  0  0  0  0
   -2.8403    2.0289    0.1447 C   0  0  0  0  0  0  0  0  0  0  0  0
   -4.2323    2.6722    0.1134 C   0  0  0  0  0  0  0  0  0  0  0  0
   -5.0091    2.2420   -1.1361 C   0  0  0  0  0  0  0  0  0  0  0  0
   -5.1122    0.7147   -1.2191 C   0  0  0  0  0  0  0  0  0  0  0  0
   -3.7225    0.0662   -1.1907 C   0  0  0  0  0  0  0  0  0  0  0  0
   -0.6297   -3.7558    0.2121 C   0  0  0  0  0  0  0  0  0  0  0  0
   -1.7423   -4.5092    0.2598 N   0  0  0  0  0  0  0  0  0  0  0  0
   -1.2387   -5.7742    0.3060 C   0  0  0  0  0  0  0  0  0  0  0  0
    0.1176   -5.8227    0.2880 N   0  0  0  0  0  0  0  0  0  0  0  0
    0.4723   -4.5364    0.2292 C   0  0  0  0  0  0  0  0  0  0  0  0
    1.7282   -4.0311    0.1881 N   0  0  0  0  0  0  0  0  0  0  0  0
    4.5047   -0.1357   -0.5791 C   0  0  0  0  0  0  0  0  0  0  0  0
    4.8026    1.2259   -0.4706 C   0  0  0  0  0  0  0  0  0  0  0  0
    6.4773    3.3891    1.5235 H   0  0  0  0  0  0  0  0  0  0  0  0
    5.2635    3.5641    2.6669 H   0  0  0  0  0  0  0  0  0  0  0  0
    2.5141    2.0838    1.9011 H   0  0  0  0  0  0  0  0  0  0  0  0
    2.0044   -0.3070    1.7324 H   0  0  0  0  0  0  0  0  0  0  0  0
    3.9784   -2.7450   -0.1904 H   0  0  0  0  0  0  0  0  0  0  0  0
   -0.9764    0.1722   -0.8405 H   0  0  0  0  0  0  0  0  0  0  0  0
   -0.9718    0.2288    0.9652 H   0  0  0  0  0  0  0  0  0  0  0  0
   -3.4788    0.1264    0.9688 H   0  0  0  0  0  0  0  0  0  0  0  0
   -2.2372    2.4166   -0.7064 H   0  0  0  0  0  0  0  0  0  0  0  0
   -2.3315    2.3252    1.0879 H   0  0  0  0  0  0  0  0  0  0  0  0
   -4.1253    3.7783    0.1156 H   0  0  0  0  0  0  0  0  0  0  0  0
   -4.7993    2.3812    1.0250 H   0  0  0  0  0  0  0  0  0  0  0  0
   -6.0309    2.6772   -1.1007 H   0  0  0  0  0  0  0  0  0  0  0  0
   -4.5012    2.6326   -2.0454 H   0  0  0  0  0  0  0  0  0  0  0  0
   -5.7197    0.3342   -0.3685 H   0  0  0  0  0  0  0  0  0  0  0  0
   -5.6292    0.4332   -2.1616 H   0  0  0  0  0  0  0  0  0  0  0  0
   -3.8469   -1.0384   -1.2022 H   0  0  0  0  0  0  0  0  0  0  0  0
   -3.1626    0.3576   -2.1072 H   0  0  0  0  0  0  0  0  0  0  0  0
   -1.8626   -6.6570    0.3520 H   0  0  0  0  0  0  0  0  0  0  0  0
    0.7343   -6.6647    0.3140 H   0  0  0  0  0  0  0  0  0  0  0  0
    5.0733   -0.7510   -1.2650 H   0  0  0  0  0  0  0  0  0  0  0  0
    5.6016    1.6438   -1.0697 H   0  0  0  0  0  0  0  0  0  0  0  0
  1  2  1  0
  2  3  2  0
  2  4  2  0
  2  5  1  0
  5  6  2  0
  6  7  1  0
  7  8  2  0
  8  9  1  0
  9 10  1  0
 10 11  2  0
 11 12  1  0
 12 13  1  0
 13 14  1  0
 14 15  1  0
 15 16  1  0
 16 17  1  0
 17 18  1  0
 18 19  1  0
 19 20  1  0
 12 21  2  0
 21 22  1  0
 22 23  2  0
 23 24  1  0
 24 25  1  0
 25 26  2  0
  8 27  1  0
 27 28  2  0
 28  5  1  0
 26 10  1  0
 20 15  1  0
 25 21  1  0
  1 29  1  0
  1 30  1  0
  6 31  1  0
  7 32  1  0
  9 33  1  0
 14 34  1  0
 14 35  1  0
 15 36  1  0
 16 37  1  0
 16 38  1  0
 17 39  1  0
 17 40  1  0
 18 41  1  0
 18 42  1  0
 19 43  1  0
 19 44  1  0
 20 45  1  0
 20 46  1  0
 23 47  1  0
 24 48  1  0
 27 49  1  0
 28 50  1  0
M  END
$$$$
