
     RDKit          3D

 50 54  0  0  0  0  0  0  0  0999 V2000
   -3.9343   -1.9448    2.3093 C   0  0  0  0  0  0  0  0  0  0  0  0
   -3.9516   -2.2732    0.8211 C   0  0  0  0  0  0  0  0  0  0  0  0
   -3.6526   -1.0795    0.0315 N   0  0  0  0  0  0  0  0  0  0  0  0
   -4.5933   -0.0763   -0.3519 C   0  0  0  0  0  0  0  0  0  0  0  0
   -5.8406   -0.2382   -0.2667 O   0  0  0  0  0  0  0  0  0  0  0  0
   -3.9367    1.1891   -0.8461 C   0  0  0  0  0  0  0  0  0  0  0  0
   -4.3165    2.3861    0.0367 C   0  0  0  0  0  0  0  0  0  0  0  0
   -4.2670    1.4407   -2.3233 C   0  0  0  0  0  0  0  0  0  0  0  0
   -2.4897    0.8139   -0.6656 C   0  0  0  0  0  0  0  0  0  0  0  0
   -1.3518    1.5994   -0.9175 C   0  0  0  0  0  0  0  0  0  0  0  0
   -0.1121    1.0164   -0.6315 C   0  0  0  0  0  0  0  0  0  0  0  0
   -0.0010   -0.2612   -0.1272 C   0  0  0  0  0  0  0  0  0  0  0  0
   -1.1281   -1.0527    0.1376 C   0  0  0  0  0  0  0  0  0  0  0  0
   -2.3779   -0.4790   -0.1539 C   0  0  0  0  0  0  0  0  0  0  0  0
    1.3494   -0.5121    0.0495 C   0  0  0  0  0  0  0  0  0  0  0  0
    2.0022    0.6683   -0.3404 C   0  0  0  0  0  0  0  0  0  0  0  0
    1.0956    1.5847   -0.7647 N   0  0  0  0  0  0  0  0  0  0  0  0
    3.4591    0.9413   -0.3142 C   0  0  0  0  0  0  0  0  0  0  0  0
    4.4883    0.0985    0.0873 C   0  0  0  0  0  0  0  0  0  0  0  0
    4.4182   -1.2742    0.6925 C   0  0  0  0  0  0  0  0  0  0  0  0
    3.2963   -2.1278    0.1004 C   0  0  0  0  0  0  0  0  0  0  0  0
    1.9270   -1.7536    0.6703 C   0  0  0  0  0  0  0  0  0  0  0  0
    5.6361    0.8613   -0.0650 C   0  0  0  0  0  0  0  0  0  0  0  0
    7.0344    0.4405    0.2537 C   0  0  0  0  0  0  0  0  0  0  0  0
    5.3180    2.0725   -0.5554 N   0  0  0  0  0  0  0  0  0  0  0  0
    4.0047    2.1130   -0.7041 N   0  0  0  0  0  0  0  0  0  0  0  0
   -2.9295   -1.5792    2.6096 H   0  0  0  0  0  0  0  0  0  0  0  0
   -4.6900   -1.1632    2.5365 H   0  0  0  0  0  0  0  0  0  0  0  0
   -4.1734   -2.8568    2.8957 H   0  0  0  0  0  0  0  0  0  0  0  0
   -3.2062   -3.0669    0.6036 H   0  0  0  0  0  0  0  0  0  0  0  0
   -4.9526   -2.6663    0.5415 H   0  0  0  0  0  0  0  0  0  0  0  0
   -5.4068    2.5879   -0.0351 H   0  0  0  0  0  0  0  0  0  0  0  0
   -4.0646    2.1838    1.1006 H   0  0  0  0  0  0  0  0  0  0  0  0
   -3.7686    3.2963   -0.2883 H   0  0  0  0  0  0  0  0  0  0  0  0
   -3.9811    0.5635   -2.9439 H   0  0  0  0  0  0  0  0  0  0  0  0
   -3.7160    2.3304   -2.6965 H   0  0  0  0  0  0  0  0  0  0  0  0
   -5.3559    1.6220   -2.4496 H   0  0  0  0  0  0  0  0  0  0  0  0
   -1.4297    2.6076   -1.3031 H   0  0  0  0  0  0  0  0  0  0  0  0
   -1.0424   -2.0493    0.5467 H   0  0  0  0  0  0  0  0  0  0  0  0
    1.2795    2.5513   -1.1126 H   0  0  0  0  0  0  0  0  0  0  0  0
    5.3785   -1.7988    0.4996 H   0  0  0  0  0  0  0  0  0  0  0  0
    4.3087   -1.1855    1.7947 H   0  0  0  0  0  0  0  0  0  0  0  0
    3.2940   -2.0648   -1.0107 H   0  0  0  0  0  0  0  0  0  0  0  0
    3.4988   -3.1882    0.3679 H   0  0  0  0  0  0  0  0  0  0  0  0
    1.9780   -1.6245    1.7728 H   0  0  0  0  0  0  0  0  0  0  0  0
    1.2425   -2.6052    0.4715 H   0  0  0  0  0  0  0  0  0  0  0  0
    7.0906    0.0894    1.3054 H   0  0  0  0  0  0  0  0  0  0  0  0
    7.7314    1.2949    0.1234 H   0  0  0  0  0  0  0  0  0  0  0  0
    7.3406   -0.3812   -0.4267 H   0  0  0  0  0  0  0  0  0  0  0  0
    3.4980    2.9500   -1.0656 H   0  0  0  0  0  0  0  0  0  0  0  0
  1  2  1  0
  2  3  1  0
  3  4  1  0
  4  5  2  0
  4  6  1  0
  6  7  1  0
  6  8  1  0
  6  9  1  0
  9 10  2  0
 10 11  1  0
 11 12  2  0
 12 13  1  0
 13 14  2  0
 12 15  1  0
 15 16  2  0
 16 17  1  0
 16 18  1  0
 18 19  2  0
 19 20  1  0
 20 21  1  0
 21 22  1  0
 19 23  1  0
 23 24  1  0
 23 25  2  0
 25 26  1  0
 14  3  1  0
 22 15  1  0
 14  9  1  0
 26 18  1  0
 17 11  1  0
  1 27  1  0
  1 28  1  0
  1 29  1  0
  2 30  1  0
  2 31  1  0
  7 32  1  0
  7 33  1  0
  7 34  1  0
  8 35  1  0
  8 36  1  0
  8 37  1  0
 10 38  1  0
 13 39  1  0
 17 40  1  0
 20 41  1  0
 20 42  1  0
 21 43  1  0
 21 44  1  0
 22 45  1  0
 22 46  1  0
 24 47  1  0
 24 48  1  0
 24 49  1  0
 26 50  1  0
M  END
$$$$
