
     RDKit          3D

 74 73  0  0  0  0  0  0  0  0999 V2000
    8.5971    2.6123    3.3030 C   0  0  0  0  0  0  0  0  0  0  0  0
    8.4466    1.2505    2.6262 C   0  0  0  0  0  0  0  0  0  0  0  0
    8.3209    1.3502    1.0956 C   0  0  0  0  0  0  0  0  0  0  0  0
    7.0825    2.1172    0.5988 C   0  0  0  0  0  0  0  0  0  0  0  0
    5.7628    1.4511    1.0134 C   0  0  0  0  0  0  0  0  0  0  0  0
    4.5923    2.1119    0.3308 C   0  0  0  0  0  0  0  0  0  0  0  0
    4.1282    1.7646   -0.8829 C   0  0  0  0  0  0  0  0  0  0  0  0
    4.6939    0.6267   -1.6981 C   0  0  0  0  0  0  0  0  0  0  0  0
    3.9808    0.4915   -3.0162 C   0  0  0  0  0  0  0  0  0  0  0  0
    2.7306    0.0289   -3.1574 C   0  0  0  0  0  0  0  0  0  0  0  0
    1.8824   -0.4078   -2.0294 C   0  0  0  0  0  0  0  0  0  0  0  0
    0.6378   -0.8414   -2.2391 C   0  0  0  0  0  0  0  0  0  0  0  0
   -0.2135   -1.2705   -1.1176 C   0  0  0  0  0  0  0  0  0  0  0  0
   -1.4670   -1.6832   -1.3231 C   0  0  0  0  0  0  0  0  0  0  0  0
   -2.3480   -2.1161   -0.1771 C   0  0  1  0  0  0  0  0  0  0  0  0
   -2.6568   -0.7025    0.9680 S   0  0  0  0  0  0  0  0  0  0  0  0
   -3.5595    0.3991   -0.1853 C   0  0  0  0  0  0  0  0  0  0  0  0
   -3.7435    1.7951    0.4295 C   0  0  2  0  0  0  0  0  0  0  0  0
   -4.7093    1.7528    1.5300 N   0  0  0  0  0  0  0  0  0  0  0  0
   -4.2216    2.7537   -0.6295 C   0  0  0  0  0  0  0  0  0  0  0  0
   -3.4477    3.6625   -1.0364 O   0  0  0  0  0  0  0  0  0  0  0  0
   -5.5362    2.6200   -1.1913 N   0  0  0  0  0  0  0  0  0  0  0  0
   -6.0091    3.4636   -2.2853 C   0  0  0  0  0  0  0  0  0  0  0  0
   -5.3362    3.0754   -3.5625 C   0  0  0  0  0  0  0  0  0  0  0  0
   -4.3178    3.8691   -4.0806 O   0  0  0  0  0  0  0  0  0  0  0  0
   -5.6709    2.0141   -4.1534 O   0  0  0  0  0  0  0  0  0  0  0  0
   -3.6457   -2.7928   -0.6914 C   0  0  1  0  0  0  0  0  0  0  0  0
   -3.3016   -3.9500   -1.4126 O   0  0  0  0  0  0  0  0  0  0  0  0
   -4.6490   -3.1591    0.4285 C   0  0  0  0  0  0  0  0  0  0  0  0
   -4.0822   -4.1453    1.4629 C   0  0  0  0  0  0  0  0  0  0  0  0
   -5.1635   -4.5743    2.4590 C   0  0  0  0  0  0  0  0  0  0  0  0
   -4.5965   -5.5156    3.4739 C   0  0  0  0  0  0  0  0  0  0  0  0
   -4.0085   -5.0146    4.6311 O   0  0  0  0  0  0  0  0  0  0  0  0
   -4.6147   -6.7579    3.2632 O   0  0  0  0  0  0  0  0  0  0  0  0
    8.8385    2.4658    4.3769 H   0  0  0  0  0  0  0  0  0  0  0  0
    9.4185    3.1928    2.8317 H   0  0  0  0  0  0  0  0  0  0  0  0
    7.6505    3.1880    3.2394 H   0  0  0  0  0  0  0  0  0  0  0  0
    7.5766    0.7116    3.0565 H   0  0  0  0  0  0  0  0  0  0  0  0
    9.3499    0.6461    2.8589 H   0  0  0  0  0  0  0  0  0  0  0  0
    8.2995    0.3215    0.6740 H   0  0  0  0  0  0  0  0  0  0  0  0
    9.2305    1.8458    0.6917 H   0  0  0  0  0  0  0  0  0  0  0  0
    7.1066    3.1662    0.9632 H   0  0  0  0  0  0  0  0  0  0  0  0
    7.1398    2.1626   -0.5098 H   0  0  0  0  0  0  0  0  0  0  0  0
    5.7846    0.3618    0.7984 H   0  0  0  0  0  0  0  0  0  0  0  0
    5.6243    1.5700    2.1087 H   0  0  0  0  0  0  0  0  0  0  0  0
    4.1056    2.9327    0.8500 H   0  0  0  0  0  0  0  0  0  0  0  0
    3.2865    2.3268   -1.2800 H   0  0  0  0  0  0  0  0  0  0  0  0
    5.7658    0.8274   -1.9038 H   0  0  0  0  0  0  0  0  0  0  0  0
    4.6278   -0.3301   -1.1377 H   0  0  0  0  0  0  0  0  0  0  0  0
    4.5215    0.7792   -3.9100 H   0  0  0  0  0  0  0  0  0  0  0  0
    2.3242   -0.0245   -4.1610 H   0  0  0  0  0  0  0  0  0  0  0  0
    2.2655   -0.3748   -1.0170 H   0  0  0  0  0  0  0  0  0  0  0  0
    0.2411   -0.8753   -3.2482 H   0  0  0  0  0  0  0  0  0  0  0  0
    0.1825   -1.2441   -0.1082 H   0  0  0  0  0  0  0  0  0  0  0  0
   -1.8591   -1.7155   -2.3340 H   0  0  0  0  0  0  0  0  0  0  0  0
   -1.7775   -2.8762    0.3992 H   0  0  0  0  0  0  0  0  0  0  0  0
   -2.9825    0.4920   -1.1296 H   0  0  0  0  0  0  0  0  0  0  0  0
   -4.5546   -0.0358   -0.4147 H   0  0  0  0  0  0  0  0  0  0  0  0
   -2.7604    2.1501    0.8167 H   0  0  0  0  0  0  0  0  0  0  0  0
   -4.8117    2.7204    1.9151 H   0  0  0  0  0  0  0  0  0  0  0  0
   -4.3077    1.1809    2.3076 H   0  0  0  0  0  0  0  0  0  0  0  0
   -6.1822    1.8921   -0.8109 H   0  0  0  0  0  0  0  0  0  0  0  0
   -7.1068    3.3362   -2.4030 H   0  0  0  0  0  0  0  0  0  0  0  0
   -5.8142    4.5327   -2.0528 H   0  0  0  0  0  0  0  0  0  0  0  0
   -3.8434    3.6113   -4.9377 H   0  0  0  0  0  0  0  0  0  0  0  0
   -4.1578   -2.0835   -1.3813 H   0  0  0  0  0  0  0  0  0  0  0  0
   -4.0833   -4.1829   -1.9790 H   0  0  0  0  0  0  0  0  0  0  0  0
   -5.5456   -3.6129   -0.0484 H   0  0  0  0  0  0  0  0  0  0  0  0
   -4.9970   -2.2387    0.9439 H   0  0  0  0  0  0  0  0  0  0  0  0
   -3.6855   -5.0454    0.9443 H   0  0  0  0  0  0  0  0  0  0  0  0
   -3.2532   -3.6624    2.0236 H   0  0  0  0  0  0  0  0  0  0  0  0
   -5.9994   -5.0722    1.9205 H   0  0  0  0  0  0  0  0  0  0  0  0
   -5.5701   -3.6812    2.9815 H   0  0  0  0  0  0  0  0  0  0  0  0
   -3.6051   -5.6378    5.3204 H   0  0  0  0  0  0  0  0  0  0  0  0
  1  2  1  0
  2  3  1  0
  3  4  1  0
  4  5  1  0
  5  6  1  0
  6  7  2  0
  7  8  1  0
  8  9  1  0
  9 10  2  0
 10 11  1  0
 11 12  2  0
 12 13  1  0
 13 14  2  0
 14 15  1  0
 15 16  1  0
 16 17  1  0
 17 18  1  0
 18 19  1  0
 18 20  1  0
 20 21  2  0
 20 22  1  0
 22 23  1  0
 23 24  1  0
 24 25  1  0
 24 26  2  0
 15 27  1  0
 27 28  1  0
 27 29  1  0
 29 30  1  0
 30 31  1  0
 31 32  1  0
 32 33  1  0
 32 34  2  0
  1 35  1  0
  1 36  1  0
  1 37  1  0
  2 38  1  0
  2 39  1  0
  3 40  1  0
  3 41  1  0
  4 42  1  0
  4 43  1  0
  5 44  1  0
  5 45  1  0
  6 46  1  0
  7 47  1  0
  8 48  1  0
  8 49  1  0
  9 50  1  0
 10 51  1  0
 11 52  1  0
 12 53  1  0
 13 54  1  0
 14 55  1  0
 15 56  1  1
 17 57  1  0
 17 58  1  0
 18 59  1  1
 19 60  1  0
 19 61  1  0
 22 62  1  0
 23 63  1  0
 23 64  1  0
 25 65  1  0
 27 66  1  6
 28 67  1  0
 29 68  1  0
 29 69  1  0
 30 70  1  0
 30 71  1  0
 31 72  1  0
 31 73  1  0
 33 74  1  0
M  END
$$$$
