
     RDKit          3D

 51 54  0  0  0  0  0  0  0  0999 V2000
   -4.6205    1.0934   -3.0987 O   0  0  0  0  0  0  0  0  0  0  0  0
   -5.6498    1.7386   -2.4185 C   0  0  0  0  0  0  0  0  0  0  0  0
   -6.7012    2.0431   -3.0446 O   0  0  0  0  0  0  0  0  0  0  0  0
   -5.5057    2.0988   -0.9857 C   0  0  0  0  0  0  0  0  0  0  0  0
   -4.5650    1.4577   -0.1396 C   0  0  0  0  0  0  0  0  0  0  0  0
   -3.8052    0.3291   -0.6010 N   0  0  0  0  0  0  0  0  0  0  0  0
   -2.3815    0.2202   -0.4241 C   0  0  0  0  0  0  0  0  0  0  0  0
   -1.7529    1.1347    0.1766 O   0  0  0  0  0  0  0  0  0  0  0  0
   -1.6319   -0.9500   -0.9403 C   0  0  0  0  0  0  0  0  0  0  0  0
   -2.0815   -1.6672   -2.0643 C   0  0  0  0  0  0  0  0  0  0  0  0
   -1.3561   -2.7628   -2.5401 C   0  0  0  0  0  0  0  0  0  0  0  0
   -0.1723   -3.1499   -1.9096 C   0  0  0  0  0  0  0  0  0  0  0  0
    0.2985   -2.4357   -0.8012 C   0  0  0  0  0  0  0  0  0  0  0  0
   -0.4321   -1.3412   -0.3190 C   0  0  0  0  0  0  0  0  0  0  0  0
    1.7956   -2.9092   -0.0030 S   0  0  0  0  0  6  0  0  0  0  0  0
    2.6484   -3.7111   -0.9482 O   0  0  0  0  0  0  0  0  0  0  0  0
    1.4532   -3.7555    1.1913 O   0  0  0  0  0  0  0  0  0  0  0  0
    2.6667   -1.4840    0.5069 N   0  0  0  0  0  0  0  0  0  0  0  0
    3.1244   -0.7345   -0.6742 C   0  0  0  0  0  0  0  0  0  0  0  0
    3.6862    0.6190   -0.2355 C   0  0  0  0  0  0  0  0  0  0  0  0
    4.6551    0.4755    0.9098 C   0  0  0  0  0  0  0  0  0  0  0  0
    5.4916    1.5514    1.2456 C   0  0  0  0  0  0  0  0  0  0  0  0
    6.3619    1.4554    2.3344 C   0  0  0  0  0  0  0  0  0  0  0  0
    6.3990    0.2886    3.1004 C   0  0  0  0  0  0  0  0  0  0  0  0
    5.5621   -0.7844    2.7838 C   0  0  0  0  0  0  0  0  0  0  0  0
    4.6720   -0.6935    1.7021 C   0  0  0  0  0  0  0  0  0  0  0  0
    3.8192   -1.8835    1.3342 C   0  0  0  0  0  0  0  0  0  0  0  0
   -4.4456    1.8692    1.1996 C   0  0  0  0  0  0  0  0  0  0  0  0
   -5.2354    2.9055    1.6980 C   0  0  0  0  0  0  0  0  0  0  0  0
   -6.1637    3.5348    0.8712 C   0  0  0  0  0  0  0  0  0  0  0  0
   -6.3022    3.1341   -0.4589 C   0  0  0  0  0  0  0  0  0  0  0  0
   -4.7131    0.8536   -4.0785 H   0  0  0  0  0  0  0  0  0  0  0  0
   -4.3285   -0.4414   -1.0718 H   0  0  0  0  0  0  0  0  0  0  0  0
   -2.9759   -1.3725   -2.5959 H   0  0  0  0  0  0  0  0  0  0  0  0
   -1.7093   -3.3090   -3.4053 H   0  0  0  0  0  0  0  0  0  0  0  0
    0.3769   -4.0017   -2.2894 H   0  0  0  0  0  0  0  0  0  0  0  0
   -0.0675   -0.8005    0.5462 H   0  0  0  0  0  0  0  0  0  0  0  0
    2.2760   -0.5457   -1.3673 H   0  0  0  0  0  0  0  0  0  0  0  0
    3.9039   -1.3036   -1.2310 H   0  0  0  0  0  0  0  0  0  0  0  0
    2.8479    1.2724    0.0902 H   0  0  0  0  0  0  0  0  0  0  0  0
    4.1889    1.1009   -1.1021 H   0  0  0  0  0  0  0  0  0  0  0  0
    5.4683    2.4647    0.6637 H   0  0  0  0  0  0  0  0  0  0  0  0
    7.0081    2.2868    2.5847 H   0  0  0  0  0  0  0  0  0  0  0  0
    7.0787    0.2146    3.9395 H   0  0  0  0  0  0  0  0  0  0  0  0
    5.6081   -1.6871    3.3805 H   0  0  0  0  0  0  0  0  0  0  0  0
    3.4471   -2.3586    2.2680 H   0  0  0  0  0  0  0  0  0  0  0  0
    4.4561   -2.6212    0.7961 H   0  0  0  0  0  0  0  0  0  0  0  0
   -3.7585    1.3658    1.8677 H   0  0  0  0  0  0  0  0  0  0  0  0
   -5.1365    3.2121    2.7313 H   0  0  0  0  0  0  0  0  0  0  0  0
   -6.7784    4.3359    1.2612 H   0  0  0  0  0  0  0  0  0  0  0  0
   -7.0237    3.6482   -1.0820 H   0  0  0  0  0  0  0  0  0  0  0  0
  1  2  1  0
  2  3  2  0
  2  4  1  0
  4  5  2  0
  5  6  1  0
  6  7  1  0
  7  8  2  0
  7  9  1  0
  9 10  2  0
 10 11  1  0
 11 12  2  0
 12 13  1  0
 13 14  2  0
 13 15  1  0
 15 16  2  0
 15 17  2  0
 15 18  1  0
 18 19  1  0
 19 20  1  0
 20 21  1  0
 21 22  2  0
 22 23  1  0
 23 24  2  0
 24 25  1  0
 25 26  2  0
 26 27  1  0
  5 28  1  0
 28 29  2  0
 29 30  1  0
 30 31  2  0
 31  4  1  0
 14  9  1  0
 27 18  1  0
 26 21  1  0
  1 32  1  0
  6 33  1  0
 10 34  1  0
 11 35  1  0
 12 36  1  0
 14 37  1  0
 19 38  1  0
 19 39  1  0
 20 40  1  0
 20 41  1  0
 22 42  1  0
 23 43  1  0
 24 44  1  0
 25 45  1  0
 27 46  1  0
 27 47  1  0
 28 48  1  0
 29 49  1  0
 30 50  1  0
 31 51  1  0
M  END
$$$$
