
     RDKit          3D

 38 37  0  0  0  0  0  0  0  0999 V2000
    3.6428   -2.7051   -0.2139 C   0  0  0  0  0  0  0  0  0  0  0  0
    2.2068   -2.2833   -0.5014 C   0  0  0  0  0  0  0  0  0  0  0  0
    2.1169   -0.8749   -0.5516 O   0  0  0  0  0  0  0  0  0  0  0  0
    1.4781   -0.2681    0.9151 P   0  0  0  0  0  5  0  0  0  0  0  0
    2.1041   -0.9613    2.1071 O   0  0  0  0  0  0  0  0  0  0  0  0
    1.7733    1.4086    1.0132 O   0  0  0  0  0  0  0  0  0  0  0  0
    3.1572    1.6228    0.8734 C   0  0  0  0  0  0  0  0  0  0  0  0
    3.4433    3.1116    0.9927 C   0  0  0  0  0  0  0  0  0  0  0  0
   -0.3306   -0.5348    0.9396 C   0  0  1  0  0  0  0  0  0  0  0  0
   -0.9326    0.0778    2.2046 C   0  0  0  0  0  0  0  0  0  0  0  0
   -0.9441    0.0609   -0.2505 N   0  0  0  0  0  0  0  0  0  0  0  0
   -2.2801   -0.2627   -0.6650 C   0  0  0  0  0  0  0  0  0  0  0  0
   -2.8831   -1.2337   -0.1312 O   0  0  0  0  0  0  0  0  0  0  0  0
   -2.9200    0.4825   -1.7198 N   0  0  0  0  0  0  0  0  0  0  0  0
   -3.9053   -0.1669   -2.5876 C   0  0  0  0  0  0  0  0  0  0  0  0
   -5.3116   -0.0740   -1.9932 C   0  0  0  0  0  0  0  0  0  0  0  0
   -5.9006    1.6095   -1.9843 Cl  0  0  0  0  0  0  0  0  0  0  0  0
   -2.6730    1.8555   -1.9043 N   0  0  0  0  0  0  0  0  0  0  0  0
   -2.0620    2.5347   -1.0534 O   0  0  0  0  0  0  0  0  0  0  0  0
    4.3237   -2.2820   -0.9826 H   0  0  0  0  0  0  0  0  0  0  0  0
    3.9591   -2.3449    0.7868 H   0  0  0  0  0  0  0  0  0  0  0  0
    3.7195   -3.8127   -0.2362 H   0  0  0  0  0  0  0  0  0  0  0  0
    1.9277   -2.6770   -1.5014 H   0  0  0  0  0  0  0  0  0  0  0  0
    1.5139   -2.7684    0.2239 H   0  0  0  0  0  0  0  0  0  0  0  0
    3.7264    1.0976    1.6739 H   0  0  0  0  0  0  0  0  0  0  0  0
    3.5122    1.2834   -0.1257 H   0  0  0  0  0  0  0  0  0  0  0  0
    4.5330    3.2951    0.8827 H   0  0  0  0  0  0  0  0  0  0  0  0
    2.9023    3.6676    0.1976 H   0  0  0  0  0  0  0  0  0  0  0  0
    3.1139    3.4836    1.9861 H   0  0  0  0  0  0  0  0  0  0  0  0
   -0.5141   -1.6305    0.9427 H   0  0  0  0  0  0  0  0  0  0  0  0
   -0.4643   -0.3673    3.1080 H   0  0  0  0  0  0  0  0  0  0  0  0
   -0.7741    1.1774    2.2170 H   0  0  0  0  0  0  0  0  0  0  0  0
   -2.0233   -0.1242    2.2468 H   0  0  0  0  0  0  0  0  0  0  0  0
   -0.3735    0.6853   -0.8638 H   0  0  0  0  0  0  0  0  0  0  0  0
   -3.8935    0.3081   -3.5929 H   0  0  0  0  0  0  0  0  0  0  0  0
   -3.6375   -1.2369   -2.7290 H   0  0  0  0  0  0  0  0  0  0  0  0
   -5.3226   -0.4703   -0.9565 H   0  0  0  0  0  0  0  0  0  0  0  0
   -6.0083   -0.6830   -2.6069 H   0  0  0  0  0  0  0  0  0  0  0  0
  1  2  1  0
  2  3  1  0
  3  4  1  0
  4  5  2  0
  4  6  1  0
  6  7  1  0
  7  8  1  0
  4  9  1  0
  9 10  1  0
  9 11  1  0
 11 12  1  0
 12 13  2  0
 12 14  1  0
 14 15  1  0
 15 16  1  0
 16 17  1  0
 14 18  1  0
 18 19  2  0
  1 20  1  0
  1 21  1  0
  1 22  1  0
  2 23  1  0
  2 24  1  0
  7 25  1  0
  7 26  1  0
  8 27  1  0
  8 28  1  0
  8 29  1  0
  9 30  1  1
 10 31  1  0
 10 32  1  0
 10 33  1  0
 11 34  1  0
 15 35  1  0
 15 36  1  0
 16 37  1  0
 16 38  1  0
M  END
$$$$
