
     RDKit          3D

 22 22  0  0  0  0  0  0  0  0999 V2000
    4.5380   -0.5853   -1.3615 O   0  0  0  0  0  0  0  0  0  0  0  0
    3.5891   -0.2305   -0.4073 C   0  0  0  0  0  0  0  0  0  0  0  0
    3.9626    0.2318    0.7037 O   0  0  0  0  0  0  0  0  0  0  0  0
    2.1585   -0.3999   -0.7008 C   0  0  0  0  0  0  0  0  0  0  0  0
    1.8133   -0.8657   -1.8204 O   0  0  0  0  0  0  0  0  0  0  0  0
    1.1626   -0.0170    0.2619 N   0  0  0  0  0  0  0  0  0  0  0  0
   -0.2365   -0.3028    0.0953 C   0  0  0  0  0  0  0  0  0  0  0  0
   -1.2240    0.6781    0.3744 C   0  0  0  0  0  0  0  0  0  0  0  0
   -2.5829    0.3193    0.2991 C   0  0  0  0  0  0  0  0  0  0  0  0
   -2.9616   -0.9765   -0.0593 C   0  0  0  0  0  0  0  0  0  0  0  0
   -5.0055   -1.4844   -0.1771 I   0  0  0  0  0  0  0  0  0  0  0  0
   -1.9890   -1.9347   -0.3415 C   0  0  0  0  0  0  0  0  0  0  0  0
   -0.6366   -1.6034   -0.2591 C   0  0  0  0  0  0  0  0  0  0  0  0
   -0.8792    2.0831    0.7045 C   0  0  0  0  0  0  0  0  0  0  0  0
   -1.8073    2.8927    1.3547 O   0  0  0  0  0  0  0  0  0  0  0  0
    0.2352    2.5706    0.3743 O   0  0  0  0  0  0  0  0  0  0  0  0
    5.5279   -0.4760   -1.1759 H   0  0  0  0  0  0  0  0  0  0  0  0
    1.4611    0.5062    1.1154 H   0  0  0  0  0  0  0  0  0  0  0  0
   -3.3561    1.0503    0.5003 H   0  0  0  0  0  0  0  0  0  0  0  0
   -2.2802   -2.9414   -0.6122 H   0  0  0  0  0  0  0  0  0  0  0  0
    0.1027   -2.3722   -0.4438 H   0  0  0  0  0  0  0  0  0  0  0  0
   -1.5920    3.8577    1.5753 H   0  0  0  0  0  0  0  0  0  0  0  0
  1  2  1  0
  2  3  2  0
  2  4  1  0
  4  5  2  0
  4  6  1  0
  6  7  1  0
  7  8  2  0
  8  9  1  0
  9 10  2  0
 10 11  1  0
 10 12  1  0
 12 13  2  0
  8 14  1  0
 14 15  1  0
 14 16  2  0
 13  7  1  0
  1 17  1  0
  6 18  1  0
  9 19  1  0
 12 20  1  0
 13 21  1  0
 15 22  1  0
M  END
$$$$
