
     RDKit          3D

 68 74  0  0  0  0  0  0  0  0999 V2000
   -3.9448   -0.9518   -1.7111 C   0  0  0  0  0  0  0  0  0  0  0  0
   -3.1970    0.2289   -1.2904 N   0  0  0  0  0  0  0  0  0  0  0  0
   -2.7160    0.4665   -0.0487 C   0  0  0  0  0  0  0  0  0  0  0  0
   -1.9707    1.6436   -0.0360 C   0  0  0  0  0  0  0  0  0  0  0  0
   -2.0126    2.1271   -1.3330 C   0  0  0  0  0  0  0  0  0  0  0  0
   -1.4025    3.2338   -1.9253 C   0  0  0  0  0  0  0  0  0  0  0  0
   -1.5818    3.4269   -3.3060 C   0  0  0  0  0  0  0  0  0  0  0  0
   -2.3498    2.5161   -4.0618 C   0  0  0  0  0  0  0  0  0  0  0  0
   -2.9444    1.4020   -3.4444 C   0  0  0  0  0  0  0  0  0  0  0  0
   -2.7568    1.2366   -2.0694 C   0  0  0  0  0  0  0  0  0  0  0  0
   -1.2305    2.2008    1.1153 C   0  0  0  0  0  0  0  0  0  0  0  0
   -0.5390    1.5068    2.0301 C   0  0  0  0  0  0  0  0  0  0  0  0
   -0.0094    2.4626    3.0053 C   0  0  0  0  0  0  0  0  0  0  0  0
    0.7474    2.1810    3.9713 O   0  0  0  0  0  0  0  0  0  0  0  0
   -0.4155    3.7841    2.6877 N   0  0  0  0  0  0  0  0  0  0  0  0
   -1.1880    3.6121    1.5102 C   0  0  0  0  0  0  0  0  0  0  0  0
   -1.7992    4.5524    0.9382 O   0  0  0  0  0  0  0  0  0  0  0  0
   -0.2763    0.0553    2.0162 C   0  0  0  0  0  0  0  0  0  0  0  0
    0.0603   -0.7059    0.9053 C   0  0  0  0  0  0  0  0  0  0  0  0
    0.1667   -2.0202    1.2343 N   0  0  0  0  0  0  0  0  0  0  0  0
    0.5004   -3.1546    0.3472 C   0  0  0  0  0  0  0  0  0  0  0  0
    1.9479   -3.6241    0.5818 C   0  0  0  0  0  0  0  0  0  0  0  0
    2.9940   -2.6100    0.0709 C   0  0  0  0  0  0  0  0  0  0  0  0
    2.3975   -1.5730   -0.7962 N   0  0  0  0  0  0  0  0  0  0  0  0
    3.4442   -0.7370   -1.4147 C   0  0  0  0  0  0  0  0  0  0  0  0
    2.9003    0.6299   -1.7075 C   0  0  0  0  0  0  0  0  0  0  0  0
    2.5091    1.4791   -0.6613 C   0  0  0  0  0  0  0  0  0  0  0  0
    2.0168    2.7503   -0.9597 C   0  0  0  0  0  0  0  0  0  0  0  0
    1.9224    3.1630   -2.2900 C   0  0  0  0  0  0  0  0  0  0  0  0
    2.3065    2.2864   -3.3069 C   0  0  0  0  0  0  0  0  0  0  0  0
    2.7841    1.0514   -2.9973 N   0  0  0  0  0  0  0  0  0  0  0  0
    1.5144   -2.1780   -1.8133 C   0  0  0  0  0  0  0  0  0  0  0  0
    0.2824   -2.8336   -1.1524 C   0  0  0  0  0  0  0  0  0  0  0  0
   -0.0958   -2.0841    2.5602 C   0  0  0  0  0  0  0  0  0  0  0  0
   -0.1472   -3.2219    3.3736 C   0  0  0  0  0  0  0  0  0  0  0  0
   -0.4870   -3.0542    4.7273 C   0  0  0  0  0  0  0  0  0  0  0  0
   -0.7807   -1.7725    5.2378 C   0  0  0  0  0  0  0  0  0  0  0  0
   -0.7318   -0.6447    4.4012 C   0  0  0  0  0  0  0  0  0  0  0  0
   -0.3688   -0.8349    3.0668 C   0  0  0  0  0  0  0  0  0  0  0  0
   -4.2988   -1.5229   -0.8264 H   0  0  0  0  0  0  0  0  0  0  0  0
   -3.2910   -1.6065   -2.3247 H   0  0  0  0  0  0  0  0  0  0  0  0
   -4.8284   -0.6460   -2.3096 H   0  0  0  0  0  0  0  0  0  0  0  0
   -2.8795   -0.1862    0.7997 H   0  0  0  0  0  0  0  0  0  0  0  0
   -0.7929    3.9177   -1.3528 H   0  0  0  0  0  0  0  0  0  0  0  0
   -1.1181    4.2742   -3.7941 H   0  0  0  0  0  0  0  0  0  0  0  0
   -2.4748    2.6714   -5.1255 H   0  0  0  0  0  0  0  0  0  0  0  0
   -3.5213    0.6938   -4.0244 H   0  0  0  0  0  0  0  0  0  0  0  0
   -0.2062    4.6679    3.2024 H   0  0  0  0  0  0  0  0  0  0  0  0
    0.1963   -0.3042   -0.0891 H   0  0  0  0  0  0  0  0  0  0  0  0
   -0.1805   -3.9977    0.5989 H   0  0  0  0  0  0  0  0  0  0  0  0
    2.1186   -3.8290    1.6602 H   0  0  0  0  0  0  0  0  0  0  0  0
    2.0926   -4.5883    0.0457 H   0  0  0  0  0  0  0  0  0  0  0  0
    3.8001   -3.1573   -0.4696 H   0  0  0  0  0  0  0  0  0  0  0  0
    3.4552   -2.1127    0.9526 H   0  0  0  0  0  0  0  0  0  0  0  0
    4.3086   -0.6062   -0.7248 H   0  0  0  0  0  0  0  0  0  0  0  0
    3.8402   -1.2093   -2.3426 H   0  0  0  0  0  0  0  0  0  0  0  0
    2.5853    1.1586    0.3706 H   0  0  0  0  0  0  0  0  0  0  0  0
    1.7095    3.4141   -0.1618 H   0  0  0  0  0  0  0  0  0  0  0  0
    1.5471    4.1488   -2.5317 H   0  0  0  0  0  0  0  0  0  0  0  0
    2.2284    2.5893   -4.3424 H   0  0  0  0  0  0  0  0  0  0  0  0
    1.1564   -1.4024   -2.5261 H   0  0  0  0  0  0  0  0  0  0  0  0
    2.0742   -2.9415   -2.4010 H   0  0  0  0  0  0  0  0  0  0  0  0
   -0.6171   -2.1926   -1.2804 H   0  0  0  0  0  0  0  0  0  0  0  0
    0.0630   -3.7806   -1.6930 H   0  0  0  0  0  0  0  0  0  0  0  0
    0.0575   -4.2093    2.9828 H   0  0  0  0  0  0  0  0  0  0  0  0
   -0.5345   -3.9162    5.3798 H   0  0  0  0  0  0  0  0  0  0  0  0
   -1.0550   -1.6581    6.2784 H   0  0  0  0  0  0  0  0  0  0  0  0
   -0.9837    0.3345    4.7847 H   0  0  0  0  0  0  0  0  0  0  0  0
  1  2  1  0
  2  3  1  0
  3  4  2  0
  4  5  1  0
  5  6  2  0
  6  7  1  0
  7  8  2  0
  8  9  1  0
  9 10  2  0
  4 11  1  0
 11 12  2  0
 12 13  1  0
 13 14  2  0
 13 15  1  0
 15 16  1  0
 16 17  2  0
 12 18  1  0
 18 19  2  0
 19 20  1  0
 20 21  1  0
 21 22  1  0
 22 23  1  0
 23 24  1  0
 24 25  1  0
 25 26  1  0
 26 27  2  0
 27 28  1  0
 28 29  2  0
 29 30  1  0
 30 31  2  0
 24 32  1  0
 32 33  1  0
 20 34  1  0
 34 35  2  0
 35 36  1  0
 36 37  2  0
 37 38  1  0
 38 39  2  0
 10  2  1  0
 16 11  1  0
 39 18  1  0
 10  5  1  0
 33 21  1  0
 39 34  1  0
 31 26  1  0
  1 40  1  0
  1 41  1  0
  1 42  1  0
  3 43  1  0
  6 44  1  0
  7 45  1  0
  8 46  1  0
  9 47  1  0
 15 48  1  0
 19 49  1  0
 21 50  1  0
 22 51  1  0
 22 52  1  0
 23 53  1  0
 23 54  1  0
 25 55  1  0
 25 56  1  0
 27 57  1  0
 28 58  1  0
 29 59  1  0
 30 60  1  0
 32 61  1  0
 32 62  1  0
 33 63  1  0
 33 64  1  0
 35 65  1  0
 36 66  1  0
 37 67  1  0
 38 68  1  0
M  END
$$$$
