
     RDKit          3D

 62 66  0  0  0  0  0  0  0  0999 V2000
   -2.7369   -0.3727    1.1445 C   0  0  2  0  0  0  0  0  0  0  0  0
   -2.6781   -1.7943    1.2934 O   0  0  0  0  0  0  0  0  0  0  0  0
   -3.1881   -2.7178    0.3682 C   0  0  0  0  0  0  0  0  0  0  0  0
   -3.9686   -2.3208   -0.7412 C   0  0  0  0  0  0  0  0  0  0  0  0
   -4.2511   -0.5879   -1.1440 S   0  0  0  0  0  0  0  0  0  0  0  0
   -4.1395    0.0026    0.5861 C   0  0  2  0  0  0  0  0  0  0  0  0
   -4.5349    1.4615    0.8066 C   0  0  0  0  0  0  0  0  0  0  0  0
   -4.6130    1.9514    2.1256 C   0  0  0  0  0  0  0  0  0  0  0  0
   -5.0028    3.2692    2.3796 C   0  0  0  0  0  0  0  0  0  0  0  0
   -5.3436    4.1177    1.3250 C   0  0  0  0  0  0  0  0  0  0  0  0
   -5.7275    5.4297    1.5929 O   0  0  0  0  0  0  0  0  0  0  0  0
   -5.3022    3.6397    0.0109 C   0  0  0  0  0  0  0  0  0  0  0  0
   -4.9146    2.3217   -0.2481 C   0  0  0  0  0  0  0  0  0  0  0  0
   -4.5439   -3.2952   -1.5670 C   0  0  0  0  0  0  0  0  0  0  0  0
   -4.3196   -4.6537   -1.3243 C   0  0  0  0  0  0  0  0  0  0  0  0
   -4.8919   -5.6062   -2.1646 O   0  0  0  0  0  0  0  0  0  0  0  0
   -3.5213   -5.0439   -0.2425 C   0  0  0  0  0  0  0  0  0  0  0  0
   -2.9630   -4.0796    0.5998 C   0  0  0  0  0  0  0  0  0  0  0  0
   -1.5085    0.0962    0.3598 C   0  0  0  0  0  0  0  0  0  0  0  0
   -1.5206    1.2050   -0.5092 C   0  0  0  0  0  0  0  0  0  0  0  0
   -0.3555    1.6176   -1.1613 C   0  0  0  0  0  0  0  0  0  0  0  0
    0.8561    0.9571   -0.9462 C   0  0  0  0  0  0  0  0  0  0  0  0
    1.9930    1.4151   -1.6326 O   0  0  0  0  0  0  0  0  0  0  0  0
    3.3165    0.9040   -1.4740 C   0  0  0  0  0  0  0  0  0  0  0  0
    3.9424    1.4283   -0.1649 C   0  0  0  0  0  0  0  0  0  0  0  0
    5.2384    0.8046    0.1826 N   0  0  0  0  0  0  0  0  0  0  0  0
    6.2307    0.8483   -0.9069 C   0  0  0  0  0  0  0  0  0  0  0  0
    7.6397    0.5663   -0.3535 C   0  0  0  0  0  0  0  0  0  0  0  0
    7.6118   -0.2996    0.9189 C   0  0  0  0  0  0  0  0  0  0  0  0
    6.4409   -1.2858    0.8927 C   0  0  0  0  0  0  0  0  0  0  0  0
    5.0885   -0.5526    0.7570 C   0  0  0  0  0  0  0  0  0  0  0  0
    0.8889   -0.1317   -0.0581 C   0  0  0  0  0  0  0  0  0  0  0  0
   -0.2754   -0.5449    0.5942 C   0  0  0  0  0  0  0  0  0  0  0  0
   -2.6312    0.0533    2.1630 H   0  0  0  0  0  0  0  0  0  0  0  0
   -4.8925   -0.5846    1.1586 H   0  0  0  0  0  0  0  0  0  0  0  0
   -4.3849    1.3090    2.9662 H   0  0  0  0  0  0  0  0  0  0  0  0
   -5.0479    3.6285    3.3999 H   0  0  0  0  0  0  0  0  0  0  0  0
   -5.9824    6.0692    0.8493 H   0  0  0  0  0  0  0  0  0  0  0  0
   -5.5744    4.2880   -0.8124 H   0  0  0  0  0  0  0  0  0  0  0  0
   -4.9030    1.9951   -1.2777 H   0  0  0  0  0  0  0  0  0  0  0  0
   -5.1534   -2.9977   -2.4112 H   0  0  0  0  0  0  0  0  0  0  0  0
   -4.7478   -6.5982   -2.0161 H   0  0  0  0  0  0  0  0  0  0  0  0
   -3.3421   -6.0935   -0.0470 H   0  0  0  0  0  0  0  0  0  0  0  0
   -2.3665   -4.3916    1.4477 H   0  0  0  0  0  0  0  0  0  0  0  0
   -2.4177    1.7595   -0.7052 H   0  0  0  0  0  0  0  0  0  0  0  0
   -0.3940    2.4638   -1.8358 H   0  0  0  0  0  0  0  0  0  0  0  0
    3.9199    1.2671   -2.3318 H   0  0  0  0  0  0  0  0  0  0  0  0
    3.3057   -0.2026   -1.5311 H   0  0  0  0  0  0  0  0  0  0  0  0
    4.0895    2.5258   -0.2617 H   0  0  0  0  0  0  0  0  0  0  0  0
    3.2303    1.2912    0.6772 H   0  0  0  0  0  0  0  0  0  0  0  0
    6.2327    1.8491   -1.3931 H   0  0  0  0  0  0  0  0  0  0  0  0
    5.9832    0.0877   -1.6818 H   0  0  0  0  0  0  0  0  0  0  0  0
    8.2390    0.0547   -1.1379 H   0  0  0  0  0  0  0  0  0  0  0  0
    8.1475    1.5272   -0.1188 H   0  0  0  0  0  0  0  0  0  0  0  0
    7.5099    0.3565    1.8116 H   0  0  0  0  0  0  0  0  0  0  0  0
    8.5694   -0.8557    1.0141 H   0  0  0  0  0  0  0  0  0  0  0  0
    6.4467   -1.8981    1.8204 H   0  0  0  0  0  0  0  0  0  0  0  0
    6.5751   -1.9778    0.0320 H   0  0  0  0  0  0  0  0  0  0  0  0
    4.4076   -1.1813    0.1460 H   0  0  0  0  0  0  0  0  0  0  0  0
    4.6366   -0.4577    1.7683 H   0  0  0  0  0  0  0  0  0  0  0  0
    1.8072   -0.6638    0.1449 H   0  0  0  0  0  0  0  0  0  0  0  0
   -0.2083   -1.3722    1.2898 H   0  0  0  0  0  0  0  0  0  0  0  0
  1  2  1  0
  2  3  1  0
  3  4  2  0
  4  5  1  0
  5  6  1  0
  6  7  1  0
  7  8  2  0
  8  9  1  0
  9 10  2  0
 10 11  1  0
 10 12  1  0
 12 13  2  0
  4 14  1  0
 14 15  2  0
 15 16  1  0
 15 17  1  0
 17 18  2  0
  1 19  1  0
 19 20  2  0
 20 21  1  0
 21 22  2  0
 22 23  1  0
 23 24  1  0
 24 25  1  0
 25 26  1  0
 26 27  1  0
 27 28  1  0
 28 29  1  0
 29 30  1  0
 30 31  1  0
 22 32  1  0
 32 33  2  0
  6  1  1  0
 13  7  1  0
 33 19  1  0
 18  3  1  0
 31 26  1  0
  1 34  1  1
  6 35  1  1
  8 36  1  0
  9 37  1  0
 11 38  1  0
 12 39  1  0
 13 40  1  0
 14 41  1  0
 16 42  1  0
 17 43  1  0
 18 44  1  0
 20 45  1  0
 21 46  1  0
 24 47  1  0
 24 48  1  0
 25 49  1  0
 25 50  1  0
 27 51  1  0
 27 52  1  0
 28 53  1  0
 28 54  1  0
 29 55  1  0
 29 56  1  0
 30 57  1  0
 30 58  1  0
 31 59  1  0
 31 60  1  0
 32 61  1  0
 33 62  1  0
M  END
$$$$
