
     RDKit          3D

 53 54  0  0  0  0  0  0  0  0999 V2000
    3.8239   -2.6217    0.9707 O   0  0  0  0  0  0  0  0  0  0  0  0
    3.4282   -1.5147    1.7412 C   0  0  2  0  0  0  0  0  0  0  0  0
    1.9606   -1.7078    2.2001 C   0  0  0  0  0  0  0  0  0  0  0  0
    1.0678   -0.7885    1.5948 O   0  0  0  0  0  0  0  0  0  0  0  0
    1.2064   -0.8293    0.1843 C   0  0  1  0  0  0  0  0  0  0  0  0
    0.1560   -0.0899   -0.4072 O   0  0  0  0  0  0  0  0  0  0  0  0
   -1.0897   -0.7569   -0.2817 C   0  0  2  0  0  0  0  0  0  0  0  0
   -1.4382   -1.4539   -1.6152 C   0  0  0  0  0  0  0  0  0  0  0  0
   -2.0993   -0.5713   -2.5009 O   0  0  0  0  0  0  0  0  0  0  0  0
   -3.3953   -0.2079   -2.0293 C   0  0  1  0  0  0  0  0  0  0  0  0
   -4.3736   -1.0587   -2.5691 O   0  0  0  0  0  0  0  0  0  0  0  0
   -3.5232   -0.1112   -0.4815 C   0  0  2  0  0  0  0  0  0  0  0  0
   -4.4749    0.8846   -0.1520 O   0  0  0  0  0  0  0  0  0  0  0  0
   -5.8202    0.1888    0.6112 S   0  0  0  0  0  6  0  0  0  0  0  0
   -6.9420    1.3996    0.9288 O   0  0  0  0  0  0  0  0  0  0  0  0
   -6.4480   -0.8418   -0.2861 O   0  0  0  0  0  0  0  0  0  0  0  0
   -5.4010   -0.4478    1.9075 O   0  0  0  0  0  0  0  0  0  0  0  0
   -2.1630    0.2869    0.1051 C   0  0  1  0  0  0  0  0  0  0  0  0
   -2.2707    0.3447    1.5157 O   0  0  0  0  0  0  0  0  0  0  0  0
   -1.6611    1.8181    2.0935 S   0  0  0  0  0  6  0  0  0  0  0  0
   -0.0990    2.0708    1.5217 O   0  0  0  0  0  0  0  0  0  0  0  0
   -1.6324    1.7708    3.5949 O   0  0  0  0  0  0  0  0  0  0  0  0
   -2.5543    2.9435    1.6508 O   0  0  0  0  0  0  0  0  0  0  0  0
    2.5568   -0.1925   -0.2413 C   0  0  2  0  0  0  0  0  0  0  0  0
    3.0938   -0.9238   -1.3290 O   0  0  0  0  0  0  0  0  0  0  0  0
    2.8865   -0.0723   -2.7819 S   0  0  0  0  0  6  0  0  0  0  0  0
    1.2660    0.3126   -3.0243 O   0  0  0  0  0  0  0  0  0  0  0  0
    3.3463   -0.9401   -3.9183 O   0  0  0  0  0  0  0  0  0  0  0  0
    3.7189    1.1802   -2.7662 O   0  0  0  0  0  0  0  0  0  0  0  0
    3.5788   -0.2167    0.9229 C   0  0  1  0  0  0  0  0  0  0  0  0
    3.3382    0.8812    1.7866 O   0  0  0  0  0  0  0  0  0  0  0  0
    4.4952    2.0952    1.5330 S   0  0  0  0  0  6  0  0  0  0  0  0
    4.5878    2.4961   -0.0979 O   0  0  0  0  0  0  0  0  0  0  0  0
    5.8397    1.6208    2.0091 O   0  0  0  0  0  0  0  0  0  0  0  0
    4.1052    3.3153    2.3188 O   0  0  0  0  0  0  0  0  0  0  0  0
    4.8163   -2.6113    0.9391 H   0  0  0  0  0  0  0  0  0  0  0  0
    4.0779   -1.4482    2.6460 H   0  0  0  0  0  0  0  0  0  0  0  0
    1.9093   -1.5507    3.2986 H   0  0  0  0  0  0  0  0  0  0  0  0
    1.6145   -2.7505    2.0193 H   0  0  0  0  0  0  0  0  0  0  0  0
    1.1747   -1.8864   -0.1844 H   0  0  0  0  0  0  0  0  0  0  0  0
   -1.0861   -1.5484    0.5086 H   0  0  0  0  0  0  0  0  0  0  0  0
   -0.5075   -1.8131   -2.1030 H   0  0  0  0  0  0  0  0  0  0  0  0
   -2.0545   -2.3615   -1.4273 H   0  0  0  0  0  0  0  0  0  0  0  0
   -3.5931    0.8066   -2.4378 H   0  0  0  0  0  0  0  0  0  0  0  0
   -4.1634   -1.9812   -2.2730 H   0  0  0  0  0  0  0  0  0  0  0  0
   -3.7716   -1.1219   -0.0751 H   0  0  0  0  0  0  0  0  0  0  0  0
   -7.6950    0.9391    1.3786 H   0  0  0  0  0  0  0  0  0  0  0  0
   -1.8935    1.2664   -0.3620 H   0  0  0  0  0  0  0  0  0  0  0  0
    0.1983    2.9131    1.9495 H   0  0  0  0  0  0  0  0  0  0  0  0
    2.3868    0.8827   -0.4849 H   0  0  0  0  0  0  0  0  0  0  0  0
    1.1596    1.2353   -2.6803 H   0  0  0  0  0  0  0  0  0  0  0  0
    4.6118   -0.2117    0.4992 H   0  0  0  0  0  0  0  0  0  0  0  0
    3.7450    2.9795   -0.2907 H   0  0  0  0  0  0  0  0  0  0  0  0
  1  2  1  0
  2  3  1  0
  3  4  1  0
  4  5  1  0
  5  6  1  0
  6  7  1  0
  7  8  1  0
  8  9  1  0
  9 10  1  0
 10 11  1  0
 10 12  1  0
 12 13  1  0
 13 14  1  0
 14 15  1  0
 14 16  2  0
 14 17  2  0
 12 18  1  0
 18 19  1  0
 19 20  1  0
 20 21  1  0
 20 22  2  0
 20 23  2  0
  5 24  1  0
 24 25  1  0
 25 26  1  0
 26 27  1  0
 26 28  2  0
 26 29  2  0
 24 30  1  0
 30 31  1  0
 31 32  1  0
 32 33  1  0
 32 34  2  0
 32 35  2  0
 30  2  1  0
 18  7  1  0
  1 36  1  0
  2 37  1  1
  3 38  1  0
  3 39  1  0
  5 40  1  6
  7 41  1  1
  8 42  1  0
  8 43  1  0
 10 44  1  6
 11 45  1  0
 12 46  1  1
 15 47  1  0
 18 48  1  6
 21 49  1  0
 24 50  1  6
 27 51  1  0
 30 52  1  6
 33 53  1  0
M  END
$$$$
