
     RDKit          3D

 45 48  0  0  0  0  0  0  0  0999 V2000
   -3.6927   -0.1694    2.9282 C   0  0  0  0  0  0  0  0  0  0  0  0
   -3.9210   -0.0396    1.4765 N   0  0  0  0  0  0  0  0  0  0  0  0
   -2.8548   -0.0497    0.6030 C   0  0  0  0  0  0  0  0  0  0  0  0
   -1.4302   -0.1642    1.0876 C   0  0  0  0  0  0  0  0  0  0  0  0
   -0.5474   -0.4070   -0.0067 O   0  0  0  0  0  0  0  0  0  0  0  0
    0.8424   -0.5532    0.1126 C   0  0  0  0  0  0  0  0  0  0  0  0
    1.5069   -0.4732    1.3512 C   0  0  0  0  0  0  0  0  0  0  0  0
    2.8951   -0.6249    1.4169 C   0  0  0  0  0  0  0  0  0  0  0  0
    3.6396   -0.8608    0.2509 C   0  0  0  0  0  0  0  0  0  0  0  0
    5.1391   -1.0039    0.3245 C   0  0  0  0  0  0  0  0  0  0  0  0
    5.8409    0.3497    0.5206 C   0  0  0  0  0  0  0  0  0  0  0  0
    7.6348    0.0644    0.8257 S   0  0  0  0  0  0  0  0  0  0  0  0
    8.0339    0.8738   -0.7145 C   0  0  0  0  0  0  0  0  0  0  0  0
    9.2034    0.9072   -1.1778 O   0  0  0  0  0  0  0  0  0  0  0  0
    6.9452    1.4645   -1.3917 N   0  0  0  0  0  0  0  0  0  0  0  0
    5.7363    1.2200   -0.6996 C   0  0  0  0  0  0  0  0  0  0  0  0
    4.6485    1.7283   -1.0800 O   0  0  0  0  0  0  0  0  0  0  0  0
    2.9759   -0.9380   -0.9835 C   0  0  0  0  0  0  0  0  0  0  0  0
    1.5881   -0.7860   -1.0485 C   0  0  0  0  0  0  0  0  0  0  0  0
   -3.0704    0.0786   -0.7335 N   0  0  0  0  0  0  0  0  0  0  0  0
   -4.3157    0.1855   -1.2509 C   0  0  0  0  0  0  0  0  0  0  0  0
   -4.4910    0.3118   -2.6340 C   0  0  0  0  0  0  0  0  0  0  0  0
   -5.7780    0.4116   -3.1696 C   0  0  0  0  0  0  0  0  0  0  0  0
   -6.8920    0.3842   -2.3261 C   0  0  0  0  0  0  0  0  0  0  0  0
   -6.7239    0.2583   -0.9433 C   0  0  0  0  0  0  0  0  0  0  0  0
   -5.4301    0.1595   -0.3953 C   0  0  0  0  0  0  0  0  0  0  0  0
   -5.2045    0.0358    0.9864 C   0  0  0  0  0  0  0  0  0  0  0  0
   -6.1917   -0.0066    1.7738 O   0  0  0  0  0  0  0  0  0  0  0  0
   -4.5772    0.1401    3.5235 H   0  0  0  0  0  0  0  0  0  0  0  0
   -3.4517   -1.2246    3.1759 H   0  0  0  0  0  0  0  0  0  0  0  0
   -2.8603    0.4883    3.2553 H   0  0  0  0  0  0  0  0  0  0  0  0
   -1.1444    0.7867    1.5860 H   0  0  0  0  0  0  0  0  0  0  0  0
   -1.3500   -1.0070    1.8070 H   0  0  0  0  0  0  0  0  0  0  0  0
    0.9616   -0.2930    2.2674 H   0  0  0  0  0  0  0  0  0  0  0  0
    3.3914   -0.5571    2.3772 H   0  0  0  0  0  0  0  0  0  0  0  0
    5.5305   -1.5020   -0.5904 H   0  0  0  0  0  0  0  0  0  0  0  0
    5.3867   -1.6684    1.1811 H   0  0  0  0  0  0  0  0  0  0  0  0
    5.4167    0.8836    1.3981 H   0  0  0  0  0  0  0  0  0  0  0  0
    7.0229    2.0129   -2.2771 H   0  0  0  0  0  0  0  0  0  0  0  0
    3.5327   -1.1104   -1.8962 H   0  0  0  0  0  0  0  0  0  0  0  0
    1.0887   -0.8470   -2.0073 H   0  0  0  0  0  0  0  0  0  0  0  0
   -3.6327    0.3310   -3.2943 H   0  0  0  0  0  0  0  0  0  0  0  0
   -5.9123    0.5089   -4.2391 H   0  0  0  0  0  0  0  0  0  0  0  0
   -7.8874    0.4609   -2.7443 H   0  0  0  0  0  0  0  0  0  0  0  0
   -7.6018    0.2406   -0.3094 H   0  0  0  0  0  0  0  0  0  0  0  0
  1  2  1  0
  2  3  1  0
  3  4  1  0
  4  5  1  0
  5  6  1  0
  6  7  2  0
  7  8  1  0
  8  9  2  0
  9 10  1  0
 10 11  1  0
 11 12  1  0
 12 13  1  0
 13 14  2  0
 13 15  1  0
 15 16  1  0
 16 17  2  0
  9 18  1  0
 18 19  2  0
  3 20  2  0
 20 21  1  0
 21 22  2  0
 22 23  1  0
 23 24  2  0
 24 25  1  0
 25 26  2  0
 26 27  1  0
 27 28  2  0
 27  2  1  0
 19  6  1  0
 26 21  1  0
 16 11  1  0
  1 29  1  0
  1 30  1  0
  1 31  1  0
  4 32  1  0
  4 33  1  0
  7 34  1  0
  8 35  1  0
 10 36  1  0
 10 37  1  0
 11 38  1  0
 15 39  1  0
 18 40  1  0
 19 41  1  0
 22 42  1  0
 23 43  1  0
 24 44  1  0
 25 45  1  0
M  END
$$$$
