
     RDKit          3D

 19 18  0  0  0  0  0  0  0  0999 V2000
    3.0553    0.6951   -0.1706 C   0  0  0  0  0  0  0  0  0  0  0  0
    1.6324    0.5363   -0.5970 C   0  0  0  0  0  0  0  0  0  0  0  0
    1.2528    1.0231   -1.6965 O   0  0  0  0  0  0  0  0  0  0  0  0
    0.7126   -0.1841    0.2350 N   0  0  0  0  0  0  0  0  0  0  0  0
   -0.6960   -0.3622   -0.1316 C   0  0  1  0  0  0  0  0  0  0  0  0
   -1.3454   -1.4484    0.7416 C   0  0  0  0  0  0  0  0  0  0  0  0
   -2.6762   -1.6686    0.3562 O   0  0  0  0  0  0  0  0  0  0  0  0
   -1.4325    0.9394    0.0156 C   0  0  0  0  0  0  0  0  0  0  0  0
   -2.2378    1.3991   -1.0217 O   0  0  0  0  0  0  0  0  0  0  0  0
   -1.3411    1.6049    1.0825 O   0  0  0  0  0  0  0  0  0  0  0  0
    3.5976    1.3746   -0.8621 H   0  0  0  0  0  0  0  0  0  0  0  0
    3.0921    1.1222    0.8534 H   0  0  0  0  0  0  0  0  0  0  0  0
    3.5546   -0.2960   -0.1715 H   0  0  0  0  0  0  0  0  0  0  0  0
    1.0691   -0.5891    1.1310 H   0  0  0  0  0  0  0  0  0  0  0  0
   -0.7503   -0.6972   -1.1913 H   0  0  0  0  0  0  0  0  0  0  0  0
   -0.7642   -2.3955    0.6608 H   0  0  0  0  0  0  0  0  0  0  0  0
   -1.3303   -1.1367    1.8084 H   0  0  0  0  0  0  0  0  0  0  0  0
   -2.6450   -2.1870   -0.4900 H   0  0  0  0  0  0  0  0  0  0  0  0
   -2.7479    2.2701   -0.9363 H   0  0  0  0  0  0  0  0  0  0  0  0
  1  2  1  0
  2  3  2  0
  2  4  1  0
  4  5  1  0
  5  6  1  0
  6  7  1  0
  5  8  1  0
  8  9  1  0
  8 10  2  0
  1 11  1  0
  1 12  1  0
  1 13  1  0
  4 14  1  0
  5 15  1  6
  6 16  1  0
  6 17  1  0
  7 18  1  0
  9 19  1  0
M  END
$$$$
