
     RDKit          3D

 39 39  0  0  0  0  0  0  0  0999 V2000
   -1.1510   -0.7226   -1.6130 O   0  0  0  0  0  0  0  0  0  0  0  0
   -1.1276   -1.3523   -0.3550 C   0  0  1  0  0  0  0  0  0  0  0  0
    0.3026   -1.8511   -0.0513 C   0  0  2  0  0  0  0  0  0  0  0  0
    0.3106   -2.5740    1.1551 O   0  0  0  0  0  0  0  0  0  0  0  0
    1.3205   -0.6769    0.0375 C   0  0  1  0  0  0  0  0  0  0  0  0
    1.8878   -0.4549   -1.2421 O   0  0  0  0  0  0  0  0  0  0  0  0
    3.4350   -1.1746   -1.3526 P   0  0  0  0  0  5  0  0  0  0  0  0
    3.8955   -1.2253   -2.9792 O   0  0  0  0  0  0  0  0  0  0  0  0
    4.5633   -0.2444   -0.4982 O   0  0  0  0  0  0  0  0  0  0  0  0
    3.4120   -2.5850   -0.8038 O   0  0  0  0  0  0  0  0  0  0  0  0
    0.6767    0.6549    0.5137 C   0  0  2  0  0  0  0  0  0  0  0  0
    1.6541    1.4122    1.2081 O   0  0  0  0  0  0  0  0  0  0  0  0
    2.0548    2.8231    0.3333 P   0  0  0  0  0  5  0  0  0  0  0  0
    2.7365    2.4124   -1.1613 O   0  0  0  0  0  0  0  0  0  0  0  0
    0.6678    3.7658    0.0961 O   0  0  0  0  0  0  0  0  0  0  0  0
    3.0629    3.6199    1.1290 O   0  0  0  0  0  0  0  0  0  0  0  0
   -0.5019    0.3841    1.4643 C   0  0  1  0  0  0  0  0  0  0  0  0
   -0.9716    1.6008    1.9880 O   0  0  0  0  0  0  0  0  0  0  0  0
   -1.6508   -0.3796    0.7442 C   0  0  1  0  0  0  0  0  0  0  0  0
   -2.5428    0.5629    0.1701 O   0  0  0  0  0  0  0  0  0  0  0  0
   -4.1549    0.0113    0.3002 P   0  0  0  0  0  5  0  0  0  0  0  0
   -5.1816    1.1450   -0.4230 O   0  0  0  0  0  0  0  0  0  0  0  0
   -4.5770   -0.1516    1.9315 O   0  0  0  0  0  0  0  0  0  0  0  0
   -4.3144   -1.3192   -0.4014 O   0  0  0  0  0  0  0  0  0  0  0  0
   -1.0984   -1.4404   -2.2970 H   0  0  0  0  0  0  0  0  0  0  0  0
   -1.8095   -2.2342   -0.3827 H   0  0  0  0  0  0  0  0  0  0  0  0
    0.6211   -2.5346   -0.8736 H   0  0  0  0  0  0  0  0  0  0  0  0
   -0.1246   -3.4476    0.9723 H   0  0  0  0  0  0  0  0  0  0  0  0
    2.0792   -0.9517    0.8098 H   0  0  0  0  0  0  0  0  0  0  0  0
    3.1504   -1.6896   -3.4377 H   0  0  0  0  0  0  0  0  0  0  0  0
    4.3643   -0.4051    0.4582 H   0  0  0  0  0  0  0  0  0  0  0  0
    0.2460    1.1789   -0.3744 H   0  0  0  0  0  0  0  0  0  0  0  0
    1.9683    2.3300   -1.7805 H   0  0  0  0  0  0  0  0  0  0  0  0
    0.9690    4.5214   -0.4688 H   0  0  0  0  0  0  0  0  0  0  0  0
   -0.1182   -0.2398    2.3068 H   0  0  0  0  0  0  0  0  0  0  0  0
   -1.5622    1.3729    2.7530 H   0  0  0  0  0  0  0  0  0  0  0  0
   -2.1332   -0.9919    1.5439 H   0  0  0  0  0  0  0  0  0  0  0  0
   -4.8253    1.2588   -1.3401 H   0  0  0  0  0  0  0  0  0  0  0  0
   -5.5335   -0.4083    1.9206 H   0  0  0  0  0  0  0  0  0  0  0  0
  1  2  1  0
  2  3  1  0
  3  4  1  0
  3  5  1  0
  5  6  1  0
  6  7  1  0
  7  8  1  0
  7  9  1  0
  7 10  2  0
  5 11  1  0
 11 12  1  0
 12 13  1  0
 13 14  1  0
 13 15  1  0
 13 16  2  0
 11 17  1  0
 17 18  1  0
 17 19  1  0
 19 20  1  0
 20 21  1  0
 21 22  1  0
 21 23  1  0
 21 24  2  0
 19  2  1  0
  1 25  1  0
  2 26  1  6
  3 27  1  6
  4 28  1  0
  5 29  1  1
  8 30  1  0
  9 31  1  0
 11 32  1  6
 14 33  1  0
 15 34  1  0
 17 35  1  1
 18 36  1  0
 19 37  1  1
 22 38  1  0
 23 39  1  0
M  END
$$$$
