
     RDKit          3D

 52 54  0  0  0  0  0  0  0  0999 V2000
   -5.1530   -1.2561    2.8377 C   0  0  0  0  0  0  0  0  0  0  0  0
   -5.8585   -0.5354    1.6896 C   0  0  0  0  0  0  0  0  0  0  0  0
   -5.0218   -0.5170    0.4051 C   0  0  0  0  0  0  0  0  0  0  0  0
   -4.9390   -1.8579   -0.1814 N   0  0  0  0  0  0  0  0  0  0  0  0
   -4.2553   -1.7553   -1.7757 S   0  0  0  0  0  6  0  0  0  0  0  0
   -5.2525   -1.1167   -2.7014 O   0  0  0  0  0  0  0  0  0  0  0  0
   -3.9394   -3.1350   -2.2806 O   0  0  0  0  0  0  0  0  0  0  0  0
   -2.8075   -0.8015   -1.7541 N   0  0  0  0  0  0  0  0  0  0  0  0
   -1.6765   -1.1597   -0.9438 C   0  0  0  0  0  0  0  0  0  0  0  0
   -0.6095   -0.2588   -0.7324 C   0  0  0  0  0  0  0  0  0  0  0  0
    0.4865   -0.6978    0.0307 C   0  0  0  0  0  0  0  0  0  0  0  0
    1.5609    0.1694    0.2717 O   0  0  0  0  0  0  0  0  0  0  0  0
    2.7542   -0.2160    0.9505 C   0  0  0  0  0  0  0  0  0  0  0  0
    3.6479   -1.0488    0.0299 C   0  0  0  0  0  0  0  0  0  0  0  0
    4.8537   -1.4152    0.6981 O   0  0  0  0  0  0  0  0  0  0  0  0
    5.9228   -0.5366    0.9038 C   0  0  0  0  0  0  0  0  0  0  0  0
    5.8919    0.7330    0.4111 N   0  0  0  0  0  0  0  0  0  0  0  0
    6.9298    1.5864    0.6086 C   0  0  0  0  0  0  0  0  0  0  0  0
    8.0497    1.1641    1.3247 C   0  0  0  0  0  0  0  0  0  0  0  0
    9.5237    2.3419    1.6179 Br  0  0  0  0  0  0  0  0  0  0  0  0
    8.0675   -0.1395    1.8209 C   0  0  0  0  0  0  0  0  0  0  0  0
    7.0087   -0.9621    1.6018 N   0  0  0  0  0  0  0  0  0  0  0  0
    0.4883   -1.9559    0.5479 N   0  0  0  0  0  0  0  0  0  0  0  0
   -0.5503   -2.8019    0.3427 C   0  0  0  0  0  0  0  0  0  0  0  0
   -1.6145   -2.4035   -0.3964 N   0  0  0  0  0  0  0  0  0  0  0  0
   -0.6342    1.1222   -1.2642 C   0  0  0  0  0  0  0  0  0  0  0  0
   -1.6346    2.0209   -0.8582 C   0  0  0  0  0  0  0  0  0  0  0  0
   -1.6493    3.3283   -1.3529 C   0  0  0  0  0  0  0  0  0  0  0  0
   -0.6630    3.7497   -2.2506 C   0  0  0  0  0  0  0  0  0  0  0  0
   -0.6842    5.5366   -2.9240 Br  0  0  0  0  0  0  0  0  0  0  0  0
    0.3403    2.8620   -2.6527 C   0  0  0  0  0  0  0  0  0  0  0  0
    0.3571    1.5534   -2.1607 C   0  0  0  0  0  0  0  0  0  0  0  0
   -5.7548   -1.1504    3.7648 H   0  0  0  0  0  0  0  0  0  0  0  0
   -5.0467   -2.3382    2.6154 H   0  0  0  0  0  0  0  0  0  0  0  0
   -4.1494   -0.8143    3.0156 H   0  0  0  0  0  0  0  0  0  0  0  0
   -6.8392   -1.0205    1.4927 H   0  0  0  0  0  0  0  0  0  0  0  0
   -6.0534    0.5138    2.0009 H   0  0  0  0  0  0  0  0  0  0  0  0
   -5.5184    0.1767   -0.3089 H   0  0  0  0  0  0  0  0  0  0  0  0
   -4.0052   -0.1206    0.6232 H   0  0  0  0  0  0  0  0  0  0  0  0
   -4.2740   -2.4266    0.3904 H   0  0  0  0  0  0  0  0  0  0  0  0
   -2.7870    0.0506   -2.3558 H   0  0  0  0  0  0  0  0  0  0  0  0
    3.2940    0.7053    1.2521 H   0  0  0  0  0  0  0  0  0  0  0  0
    2.5088   -0.7854    1.8733 H   0  0  0  0  0  0  0  0  0  0  0  0
    3.8770   -0.4858   -0.9012 H   0  0  0  0  0  0  0  0  0  0  0  0
    3.1133   -1.9779   -0.2574 H   0  0  0  0  0  0  0  0  0  0  0  0
    6.8826    2.5905    0.2086 H   0  0  0  0  0  0  0  0  0  0  0  0
    8.9205   -0.5003    2.3800 H   0  0  0  0  0  0  0  0  0  0  0  0
   -0.5282   -3.7969    0.7650 H   0  0  0  0  0  0  0  0  0  0  0  0
   -2.3990    1.7097   -0.1573 H   0  0  0  0  0  0  0  0  0  0  0  0
   -2.4253    4.0133   -1.0363 H   0  0  0  0  0  0  0  0  0  0  0  0
    1.1065    3.1848   -3.3458 H   0  0  0  0  0  0  0  0  0  0  0  0
    1.1381    0.8748   -2.4818 H   0  0  0  0  0  0  0  0  0  0  0  0
  1  2  1  0
  2  3  1  0
  3  4  1  0
  4  5  1  0
  5  6  2  0
  5  7  2  0
  5  8  1  0
  8  9  1  0
  9 10  2  0
 10 11  1  0
 11 12  1  0
 12 13  1  0
 13 14  1  0
 14 15  1  0
 15 16  1  0
 16 17  2  0
 17 18  1  0
 18 19  2  0
 19 20  1  0
 19 21  1  0
 21 22  2  0
 11 23  2  0
 23 24  1  0
 24 25  2  0
 10 26  1  0
 26 27  2  0
 27 28  1  0
 28 29  2  0
 29 30  1  0
 29 31  1  0
 31 32  2  0
 25  9  1  0
 32 26  1  0
 22 16  1  0
  1 33  1  0
  1 34  1  0
  1 35  1  0
  2 36  1  0
  2 37  1  0
  3 38  1  0
  3 39  1  0
  4 40  1  0
  8 41  1  0
 13 42  1  0
 13 43  1  0
 14 44  1  0
 14 45  1  0
 18 46  1  0
 21 47  1  0
 24 48  1  0
 27 49  1  0
 28 50  1  0
 31 51  1  0
 32 52  1  0
M  END
$$$$
