
     RDKit          3D

 57 57  0  0  0  0  0  0  0  0999 V2000
   -7.6239    1.1120   -1.1786 C   0  0  0  0  0  0  0  0  0  0  0  0
   -7.0427    0.6081    0.1418 C   0  0  0  0  0  0  0  0  0  0  0  0
   -5.6459    1.1802    0.4425 C   0  0  0  0  0  0  0  0  0  0  0  0
   -4.5608    0.8149   -0.5866 C   0  0  0  0  0  0  0  0  0  0  0  0
   -4.2915   -0.6982   -0.6609 C   0  0  0  0  0  0  0  0  0  0  0  0
   -3.1003   -1.0323   -1.5857 C   0  0  2  0  0  0  0  0  0  0  0  0
   -3.0076   -2.4174   -1.8094 O   0  0  0  0  0  0  0  0  0  0  0  0
   -1.7851   -0.4897   -1.0708 C   0  0  0  0  0  0  0  0  0  0  0  0
   -1.2495   -0.8754    0.0992 C   0  0  0  0  0  0  0  0  0  0  0  0
    0.0634   -0.2948    0.5837 C   0  0  1  0  0  0  0  0  0  0  0  0
    0.3190   -0.6679    2.0650 C   0  0  2  0  0  0  0  0  0  0  0  0
    1.0479    0.3537    2.6966 O   0  0  0  0  0  0  0  0  0  0  0  0
    1.1597   -1.9446    2.0437 C   0  0  0  0  0  0  0  0  0  0  0  0
    1.7634   -1.9547    0.6896 C   0  0  0  0  0  0  0  0  0  0  0  0
    2.5834   -2.7898    0.3408 O   0  0  0  0  0  0  0  0  0  0  0  0
    1.2492   -0.8844   -0.2152 C   0  0  2  0  0  0  0  0  0  0  0  0
    2.3292    0.1816   -0.4926 C   0  0  0  0  0  0  0  0  0  0  0  0
    3.4304   -0.3427   -1.3844 C   0  0  0  0  0  0  0  0  0  0  0  0
    4.5263    0.3657   -1.7092 C   0  0  0  0  0  0  0  0  0  0  0  0
    4.8382    1.7452   -1.1837 C   0  0  0  0  0  0  0  0  0  0  0  0
    5.5089    1.7149    0.2015 C   0  0  0  0  0  0  0  0  0  0  0  0
    6.9571    1.1984    0.1722 C   0  0  0  0  0  0  0  0  0  0  0  0
    7.0250   -0.2897    0.0085 C   0  0  0  0  0  0  0  0  0  0  0  0
    6.4395   -1.1211    0.9586 O   0  0  0  0  0  0  0  0  0  0  0  0
    7.6177   -0.7897   -0.9848 O   0  0  0  0  0  0  0  0  0  0  0  0
   -7.5808    2.2209   -1.2252 H   0  0  0  0  0  0  0  0  0  0  0  0
   -8.6852    0.7955   -1.2591 H   0  0  0  0  0  0  0  0  0  0  0  0
   -7.0712    0.6813   -2.0392 H   0  0  0  0  0  0  0  0  0  0  0  0
   -7.0212   -0.5017    0.1436 H   0  0  0  0  0  0  0  0  0  0  0  0
   -7.7255    0.9193    0.9619 H   0  0  0  0  0  0  0  0  0  0  0  0
   -5.3253    0.8235    1.4456 H   0  0  0  0  0  0  0  0  0  0  0  0
   -5.7179    2.2882    0.5018 H   0  0  0  0  0  0  0  0  0  0  0  0
   -4.8353    1.2023   -1.5904 H   0  0  0  0  0  0  0  0  0  0  0  0
   -3.6280    1.3365   -0.2816 H   0  0  0  0  0  0  0  0  0  0  0  0
   -5.1901   -1.2068   -1.0699 H   0  0  0  0  0  0  0  0  0  0  0  0
   -4.1090   -1.0990    0.3597 H   0  0  0  0  0  0  0  0  0  0  0  0
   -3.2944   -0.5566   -2.5717 H   0  0  0  0  0  0  0  0  0  0  0  0
   -2.9605   -2.8681   -0.9262 H   0  0  0  0  0  0  0  0  0  0  0  0
   -1.2622    0.2437   -1.6792 H   0  0  0  0  0  0  0  0  0  0  0  0
   -1.7719   -1.6021    0.7149 H   0  0  0  0  0  0  0  0  0  0  0  0
    0.0024    0.8129    0.4804 H   0  0  0  0  0  0  0  0  0  0  0  0
   -0.6273   -0.8475    2.6284 H   0  0  0  0  0  0  0  0  0  0  0  0
    0.4037    1.0833    2.8926 H   0  0  0  0  0  0  0  0  0  0  0  0
    1.9469   -1.9345    2.8287 H   0  0  0  0  0  0  0  0  0  0  0  0
    0.5146   -2.8412    2.1666 H   0  0  0  0  0  0  0  0  0  0  0  0
    0.9102   -1.3304   -1.1780 H   0  0  0  0  0  0  0  0  0  0  0  0
    1.8567    1.0475   -1.0048 H   0  0  0  0  0  0  0  0  0  0  0  0
    2.7509    0.5357    0.4708 H   0  0  0  0  0  0  0  0  0  0  0  0
    3.3259   -1.3324   -1.8206 H   0  0  0  0  0  0  0  0  0  0  0  0
    5.2359   -0.0799   -2.4003 H   0  0  0  0  0  0  0  0  0  0  0  0
    5.5116    2.2577   -1.9040 H   0  0  0  0  0  0  0  0  0  0  0  0
    3.9099    2.3533   -1.1348 H   0  0  0  0  0  0  0  0  0  0  0  0
    4.9076    1.1242    0.9237 H   0  0  0  0  0  0  0  0  0  0  0  0
    5.5311    2.7581    0.5849 H   0  0  0  0  0  0  0  0  0  0  0  0
    7.4472    1.4579    1.1349 H   0  0  0  0  0  0  0  0  0  0  0  0
    7.5277    1.7044   -0.6371 H   0  0  0  0  0  0  0  0  0  0  0  0
    6.4727   -2.1285    0.8585 H   0  0  0  0  0  0  0  0  0  0  0  0
  1  2  1  0
  2  3  1  0
  3  4  1  0
  4  5  1  0
  5  6  1  0
  6  7  1  0
  6  8  1  0
  8  9  2  0
  9 10  1  0
 10 11  1  0
 11 12  1  0
 11 13  1  0
 13 14  1  0
 14 15  2  0
 14 16  1  0
 16 17  1  0
 17 18  1  0
 18 19  2  0
 19 20  1  0
 20 21  1  0
 21 22  1  0
 22 23  1  0
 23 24  1  0
 23 25  2  0
 16 10  1  0
  1 26  1  0
  1 27  1  0
  1 28  1  0
  2 29  1  0
  2 30  1  0
  3 31  1  0
  3 32  1  0
  4 33  1  0
  4 34  1  0
  5 35  1  0
  5 36  1  0
  6 37  1  6
  7 38  1  0
  8 39  1  0
  9 40  1  0
 10 41  1  1
 11 42  1  1
 12 43  1  0
 13 44  1  0
 13 45  1  0
 16 46  1  6
 17 47  1  0
 17 48  1  0
 18 49  1  0
 19 50  1  0
 20 51  1  0
 20 52  1  0
 21 53  1  0
 21 54  1  0
 22 55  1  0
 22 56  1  0
 24 57  1  0
M  END
$$$$
