
     RDKit          3D

 49 49  0  0  0  0  0  0  0  0999 V2000
   -4.5879    1.3450   -0.7478 C   0  0  1  0  0  0  0  0  0  0  0  0
   -4.4025    0.8026   -2.1004 N   0  0  0  0  0  0  0  0  0  0  0  0
   -4.9175    0.2243    0.2841 C   0  0  1  0  0  0  0  0  0  0  0  0
   -5.5510   -0.8702   -0.3372 O   0  0  0  0  0  0  0  0  0  0  0  0
   -3.6558   -0.1886    1.0969 C   0  0  1  0  0  0  0  0  0  0  0  0
   -3.7448   -1.5924    1.7165 C   0  0  0  0  0  0  0  0  0  0  0  0
   -4.8050   -1.6636    2.6325 O   0  0  0  0  0  0  0  0  0  0  0  0
   -2.5190   -0.1167    0.2605 O   0  0  0  0  0  0  0  0  0  0  0  0
   -2.1387    1.2387    0.0366 C   0  0  1  0  0  0  0  0  0  0  0  0
   -1.2291    1.2832   -1.0482 O   0  0  0  0  0  0  0  0  0  0  0  0
    0.0433    0.8143   -0.6492 C   0  0  0  0  0  0  0  0  0  0  0  0
    0.9586    0.7641   -1.8748 C   0  0  0  0  0  0  0  0  0  0  0  0
    2.4109    0.4066   -1.5205 C   0  0  0  0  0  0  0  0  0  0  0  0
    2.5643   -1.0530   -1.0571 C   0  0  0  0  0  0  0  0  0  0  0  0
    4.0343   -1.4920   -0.9650 C   0  0  0  0  0  0  0  0  0  0  0  0
    4.7855   -0.8032    0.1840 C   0  0  0  0  0  0  0  0  0  0  0  0
    6.2058   -1.3631    0.3237 C   0  0  0  0  0  0  0  0  0  0  0  0
    6.9610   -0.6751    1.4573 C   0  0  0  0  0  0  0  0  0  0  0  0
   -3.3516    2.1647   -0.3075 C   0  0  2  0  0  0  0  0  0  0  0  0
   -3.7009    2.9380    0.8137 O   0  0  0  0  0  0  0  0  0  0  0  0
   -5.4625    2.0337   -0.7878 H   0  0  0  0  0  0  0  0  0  0  0  0
   -4.3147    1.5977   -2.7745 H   0  0  0  0  0  0  0  0  0  0  0  0
   -3.5149    0.2528   -2.1499 H   0  0  0  0  0  0  0  0  0  0  0  0
   -5.6438    0.6438    1.0151 H   0  0  0  0  0  0  0  0  0  0  0  0
   -4.8713   -1.3501   -0.8780 H   0  0  0  0  0  0  0  0  0  0  0  0
   -3.5425    0.5115    1.9605 H   0  0  0  0  0  0  0  0  0  0  0  0
   -2.8010   -1.7946    2.2665 H   0  0  0  0  0  0  0  0  0  0  0  0
   -3.8332   -2.3804    0.9346 H   0  0  0  0  0  0  0  0  0  0  0  0
   -5.6108   -1.9354    2.1211 H   0  0  0  0  0  0  0  0  0  0  0  0
   -1.6526    1.6357    0.9618 H   0  0  0  0  0  0  0  0  0  0  0  0
    0.4879    1.5065    0.1016 H   0  0  0  0  0  0  0  0  0  0  0  0
   -0.0329   -0.2074   -0.2149 H   0  0  0  0  0  0  0  0  0  0  0  0
    0.9558    1.7657   -2.3580 H   0  0  0  0  0  0  0  0  0  0  0  0
    0.5564    0.0356   -2.6125 H   0  0  0  0  0  0  0  0  0  0  0  0
    3.0326    0.5660   -2.4285 H   0  0  0  0  0  0  0  0  0  0  0  0
    2.7773    1.0997   -0.7333 H   0  0  0  0  0  0  0  0  0  0  0  0
    2.0774   -1.1951   -0.0686 H   0  0  0  0  0  0  0  0  0  0  0  0
    2.0537   -1.7201   -1.7857 H   0  0  0  0  0  0  0  0  0  0  0  0
    4.0533   -2.5915   -0.7988 H   0  0  0  0  0  0  0  0  0  0  0  0
    4.5494   -1.2892   -1.9297 H   0  0  0  0  0  0  0  0  0  0  0  0
    4.8479    0.2886   -0.0120 H   0  0  0  0  0  0  0  0  0  0  0  0
    4.2331   -0.9629    1.1362 H   0  0  0  0  0  0  0  0  0  0  0  0
    6.7641   -1.2097   -0.6256 H   0  0  0  0  0  0  0  0  0  0  0  0
    6.1605   -2.4541    0.5333 H   0  0  0  0  0  0  0  0  0  0  0  0
    6.4356   -0.8337    2.4231 H   0  0  0  0  0  0  0  0  0  0  0  0
    7.0448    0.4149    1.2596 H   0  0  0  0  0  0  0  0  0  0  0  0
    7.9834   -1.1012    1.5351 H   0  0  0  0  0  0  0  0  0  0  0  0
   -3.0768    2.8566   -1.1393 H   0  0  0  0  0  0  0  0  0  0  0  0
   -3.0164    3.6529    0.8952 H   0  0  0  0  0  0  0  0  0  0  0  0
  1  2  1  0
  1  3  1  0
  3  4  1  0
  3  5  1  0
  5  6  1  0
  6  7  1  0
  5  8  1  0
  8  9  1  0
  9 10  1  0
 10 11  1  0
 11 12  1  0
 12 13  1  0
 13 14  1  0
 14 15  1  0
 15 16  1  0
 16 17  1  0
 17 18  1  0
  9 19  1  0
 19 20  1  0
 19  1  1  0
  1 21  1  6
  2 22  1  0
  2 23  1  0
  3 24  1  1
  4 25  1  0
  5 26  1  1
  6 27  1  0
  6 28  1  0
  7 29  1  0
  9 30  1  1
 11 31  1  0
 11 32  1  0
 12 33  1  0
 12 34  1  0
 13 35  1  0
 13 36  1  0
 14 37  1  0
 14 38  1  0
 15 39  1  0
 15 40  1  0
 16 41  1  0
 16 42  1  0
 17 43  1  0
 17 44  1  0
 18 45  1  0
 18 46  1  0
 18 47  1  0
 19 48  1  6
 20 49  1  0
M  END
$$$$
