
     RDKit          3D

 37 38  0  0  0  0  0  0  0  0999 V2000
    1.6495   -0.1323   -3.2587 N   0  0  0  0  0  0  0  0  0  0  0  0
    0.8375   -0.1042   -2.0385 C   0  0  1  0  0  0  0  0  0  0  0  0
   -0.4659   -0.8328   -2.2215 C   0  0  0  0  0  0  0  0  0  0  0  0
   -0.7069   -1.4860   -0.8603 C   0  0  1  0  0  0  0  0  0  0  0  0
    0.4511   -1.3586   -0.0575 O   0  0  0  0  0  0  0  0  0  0  0  0
    1.4828   -0.8549   -0.8738 C   0  0  2  0  0  0  0  0  0  0  0  0
    2.4007    0.0498   -0.0459 C   0  0  0  0  0  0  0  0  0  0  0  0
    2.9693   -0.7041    0.9990 O   0  0  0  0  0  0  0  0  0  0  0  0
    3.9544    0.3273    1.9342 P   0  0  0  0  0  5  0  0  0  0  0  0
    3.0433    1.6204    2.5382 O   0  0  0  0  0  0  0  0  0  0  0  0
    4.5914   -0.5542    3.2303 O   0  0  0  0  0  0  0  0  0  0  0  0
    5.0923    0.8611    1.0926 O   0  0  0  0  0  0  0  0  0  0  0  0
   -1.8683   -0.8691   -0.1843 N   0  0  0  0  0  0  0  0  0  0  0  0
   -1.7125    0.3202    0.4752 C   0  0  0  0  0  0  0  0  0  0  0  0
   -2.7956    0.9392    1.1068 C   0  0  0  0  0  0  0  0  0  0  0  0
   -2.6188    2.2523    1.8178 C   0  0  0  0  0  0  0  0  0  0  0  0
   -4.0508    0.3289    1.0095 C   0  0  0  0  0  0  0  0  0  0  0  0
   -5.0627    0.8580    1.5451 O   0  0  0  0  0  0  0  0  0  0  0  0
   -4.1836   -0.8388    0.3285 N   0  0  0  0  0  0  0  0  0  0  0  0
   -3.1164   -1.4345   -0.2703 C   0  0  0  0  0  0  0  0  0  0  0  0
   -3.2931   -2.5083   -0.9095 O   0  0  0  0  0  0  0  0  0  0  0  0
    2.5315    0.4001   -3.0809 H   0  0  0  0  0  0  0  0  0  0  0  0
    1.9217   -1.1170   -3.4852 H   0  0  0  0  0  0  0  0  0  0  0  0
    0.6209    0.9524   -1.7587 H   0  0  0  0  0  0  0  0  0  0  0  0
   -0.3803   -1.6216   -3.0022 H   0  0  0  0  0  0  0  0  0  0  0  0
   -1.2798   -0.1315   -2.5111 H   0  0  0  0  0  0  0  0  0  0  0  0
   -0.8784   -2.5754   -1.0087 H   0  0  0  0  0  0  0  0  0  0  0  0
    2.0784   -1.7174   -1.2507 H   0  0  0  0  0  0  0  0  0  0  0  0
    3.1973    0.4501   -0.7128 H   0  0  0  0  0  0  0  0  0  0  0  0
    1.7957    0.8927    0.3597 H   0  0  0  0  0  0  0  0  0  0  0  0
    2.3144    1.1938    3.0554 H   0  0  0  0  0  0  0  0  0  0  0  0
    5.0794    0.1139    3.7748 H   0  0  0  0  0  0  0  0  0  0  0  0
   -0.7414    0.7986    0.5129 H   0  0  0  0  0  0  0  0  0  0  0  0
   -3.1288    2.2244    2.8039 H   0  0  0  0  0  0  0  0  0  0  0  0
   -3.0563    3.0673    1.2040 H   0  0  0  0  0  0  0  0  0  0  0  0
   -1.5449    2.4751    1.9943 H   0  0  0  0  0  0  0  0  0  0  0  0
   -5.1270   -1.2847    0.2562 H   0  0  0  0  0  0  0  0  0  0  0  0
  1  2  1  0
  2  3  1  0
  3  4  1  0
  4  5  1  0
  5  6  1  0
  6  7  1  0
  7  8  1  0
  8  9  1  0
  9 10  1  0
  9 11  1  0
  9 12  2  0
  4 13  1  0
 13 14  1  0
 14 15  2  0
 15 16  1  0
 15 17  1  0
 17 18  2  0
 17 19  1  0
 19 20  1  0
 20 21  2  0
  6  2  1  0
 20 13  1  0
  1 22  1  0
  1 23  1  0
  2 24  1  1
  3 25  1  0
  3 26  1  0
  4 27  1  6
  6 28  1  6
  7 29  1  0
  7 30  1  0
 10 31  1  0
 11 32  1  0
 14 33  1  0
 16 34  1  0
 16 35  1  0
 16 36  1  0
 19 37  1  0
M  END
$$$$
