
     RDKit          3D

 27 29  0  0  0  0  0  0  0  0999 V2000
   -5.1943    1.1211    1.0874 O   0  0  0  0  0  0  0  0  0  0  0  0
   -3.9052    0.7774    0.6879 C   0  0  0  0  0  0  0  0  0  0  0  0
   -3.7060    0.1971   -0.5806 C   0  0  0  0  0  0  0  0  0  0  0  0
   -2.4039   -0.1334   -0.9444 C   0  0  0  0  0  0  0  0  0  0  0  0
   -1.3431    0.0824   -0.1134 C   0  0  0  0  0  0  0  0  0  0  0  0
   -1.4962    0.6638    1.1444 C   0  0  0  0  0  0  0  0  0  0  0  0
   -2.8002    1.0105    1.5462 C   0  0  0  0  0  0  0  0  0  0  0  0
   -0.2468   -0.3587   -0.8275 C   0  0  0  0  0  0  0  0  0  0  0  0
   -0.6812   -0.8205   -2.0256 N   0  0  0  0  0  0  0  0  0  0  0  0
   -1.9788   -0.6668   -2.0628 O   0  0  0  0  0  0  0  0  0  0  0  0
    1.1597   -0.4069   -0.3776 C   0  0  0  0  0  0  0  0  0  0  0  0
    1.4527   -0.9310    0.8930 C   0  0  0  0  0  0  0  0  0  0  0  0
    2.7750   -1.0415    1.3323 C   0  0  0  0  0  0  0  0  0  0  0  0
    3.1292   -1.7673    3.0669 Br  0  0  0  0  0  0  0  0  0  0  0  0
    3.8251   -0.6345    0.5014 C   0  0  0  0  0  0  0  0  0  0  0  0
    5.1439   -0.7511    0.9375 O   0  0  0  0  0  0  0  0  0  0  0  0
    3.5435   -0.1098   -0.7660 C   0  0  0  0  0  0  0  0  0  0  0  0
    2.2220    0.0180   -1.2094 C   0  0  0  0  0  0  0  0  0  0  0  0
    2.0024    0.5928   -2.4630 O   0  0  0  0  0  0  0  0  0  0  0  0
   -5.3732    1.5408    1.9922 H   0  0  0  0  0  0  0  0  0  0  0  0
   -4.5352    0.0160   -1.2523 H   0  0  0  0  0  0  0  0  0  0  0  0
   -0.6481    0.8529    1.7888 H   0  0  0  0  0  0  0  0  0  0  0  0
   -2.9541    1.4622    2.5177 H   0  0  0  0  0  0  0  0  0  0  0  0
    0.6543   -1.2802    1.5361 H   0  0  0  0  0  0  0  0  0  0  0  0
    5.9224   -0.4637    0.3561 H   0  0  0  0  0  0  0  0  0  0  0  0
    4.3545    0.2142   -1.4064 H   0  0  0  0  0  0  0  0  0  0  0  0
    1.0814    0.8164   -2.8158 H   0  0  0  0  0  0  0  0  0  0  0  0
  1  2  1  0
  2  3  2  0
  3  4  1  0
  4  5  2  0
  5  6  1  0
  6  7  2  0
  5  8  1  0
  8  9  2  0
  9 10  1  0
  8 11  1  0
 11 12  2  0
 12 13  1  0
 13 14  1  0
 13 15  2  0
 15 16  1  0
 15 17  1  0
 17 18  2  0
 18 19  1  0
  7  2  1  0
 18 11  1  0
 10  4  1  0
  1 20  1  0
  3 21  1  0
  6 22  1  0
  7 23  1  0
 12 24  1  0
 16 25  1  0
 17 26  1  0
 19 27  1  0
M  END
$$$$
