
     RDKit          3D

 61 64  0  0  0  0  0  0  0  0999 V2000
    0.5643   -2.2802    0.2362 C   0  0  0  0  0  0  0  0  0  0  0  0
    0.2422   -0.9554   -0.3135 N   0  0  0  0  0  0  0  0  0  0  0  0
   -1.1142   -0.3734   -0.2230 C   0  0  2  0  0  0  0  0  0  0  0  0
   -1.7390   -0.5535    1.1832 C   0  0  0  0  0  0  0  0  0  0  0  0
   -2.7770    0.4680    1.4399 N   0  0  0  0  0  0  0  0  0  0  0  0
   -4.0672    0.1638    0.8011 C   0  0  0  0  0  0  0  0  0  0  0  0
   -5.1748    0.6250    1.7453 C   0  0  0  0  0  0  0  0  0  0  0  0
   -4.4668    1.1627    2.9773 C   0  0  2  0  0  0  0  0  0  0  0  0
   -4.4266    2.5656    2.9269 O   0  0  0  0  0  0  0  0  0  0  0  0
   -3.0635    0.5917    2.8708 C   0  0  0  0  0  0  0  0  0  0  0  0
   -1.9908   -0.8937   -1.3499 C   0  0  0  0  0  0  0  0  0  0  0  0
   -2.3488   -0.0346   -2.4066 C   0  0  0  0  0  0  0  0  0  0  0  0
   -3.1437   -0.4960   -3.4596 C   0  0  0  0  0  0  0  0  0  0  0  0
   -3.5851   -1.8202   -3.4758 C   0  0  0  0  0  0  0  0  0  0  0  0
   -3.2302   -2.6861   -2.4399 C   0  0  0  0  0  0  0  0  0  0  0  0
   -2.4350   -2.2303   -1.3844 C   0  0  0  0  0  0  0  0  0  0  0  0
    1.2519   -0.2492   -1.0672 C   0  0  0  0  0  0  0  0  0  0  0  0
    0.9033    0.4684   -2.0457 O   0  0  0  0  0  0  0  0  0  0  0  0
    2.7198   -0.3477   -0.6863 C   0  0  0  0  0  0  0  0  0  0  0  0
    3.6219    0.4701   -1.5963 C   0  0  0  0  0  0  0  0  0  0  0  0
    3.5256    1.8752   -1.6439 C   0  0  0  0  0  0  0  0  0  0  0  0
    4.3679    2.6152   -2.4788 C   0  0  0  0  0  0  0  0  0  0  0  0
    5.3147    1.9649   -3.2731 C   0  0  0  0  0  0  0  0  0  0  0  0
    5.4207    0.5729   -3.2347 C   0  0  0  0  0  0  0  0  0  0  0  0
    4.5807   -0.1725   -2.4018 C   0  0  0  0  0  0  0  0  0  0  0  0
    2.9664    0.0290    0.7652 C   0  0  0  0  0  0  0  0  0  0  0  0
    2.2292    1.0467    1.4059 C   0  0  0  0  0  0  0  0  0  0  0  0
    2.4939    1.3816    2.7367 C   0  0  0  0  0  0  0  0  0  0  0  0
    3.5032    0.7195    3.4387 C   0  0  0  0  0  0  0  0  0  0  0  0
    4.2534   -0.2764    2.8098 C   0  0  0  0  0  0  0  0  0  0  0  0
    3.9917   -0.6171    1.4795 C   0  0  0  0  0  0  0  0  0  0  0  0
    1.3353   -2.1872    1.0278 H   0  0  0  0  0  0  0  0  0  0  0  0
    0.9439   -2.9393   -0.5727 H   0  0  0  0  0  0  0  0  0  0  0  0
   -0.3153   -2.7721    0.6900 H   0  0  0  0  0  0  0  0  0  0  0  0
   -1.0105    0.7305   -0.3391 H   0  0  0  0  0  0  0  0  0  0  0  0
   -0.9163   -0.4208    1.9229 H   0  0  0  0  0  0  0  0  0  0  0  0
   -2.1424   -1.5777    1.3378 H   0  0  0  0  0  0  0  0  0  0  0  0
   -4.1929   -0.9238    0.5979 H   0  0  0  0  0  0  0  0  0  0  0  0
   -4.1378    0.7147   -0.1609 H   0  0  0  0  0  0  0  0  0  0  0  0
   -5.8173   -0.2391    2.0254 H   0  0  0  0  0  0  0  0  0  0  0  0
   -5.8134    1.4007    1.2676 H   0  0  0  0  0  0  0  0  0  0  0  0
   -4.9762    0.8186    3.9078 H   0  0  0  0  0  0  0  0  0  0  0  0
   -4.1669    2.8742    3.8341 H   0  0  0  0  0  0  0  0  0  0  0  0
   -3.0426   -0.4043    3.3727 H   0  0  0  0  0  0  0  0  0  0  0  0
   -2.3161    1.2559    3.3569 H   0  0  0  0  0  0  0  0  0  0  0  0
   -2.0163    0.9959   -2.4161 H   0  0  0  0  0  0  0  0  0  0  0  0
   -3.4167    0.1742   -4.2645 H   0  0  0  0  0  0  0  0  0  0  0  0
   -4.2008   -2.1757   -4.2918 H   0  0  0  0  0  0  0  0  0  0  0  0
   -3.5719   -3.7130   -2.4544 H   0  0  0  0  0  0  0  0  0  0  0  0
   -2.1818   -2.9235   -0.5965 H   0  0  0  0  0  0  0  0  0  0  0  0
    2.9850   -1.4214   -0.8062 H   0  0  0  0  0  0  0  0  0  0  0  0
    2.7952    2.3980   -1.0411 H   0  0  0  0  0  0  0  0  0  0  0  0
    4.2856    3.6939   -2.5104 H   0  0  0  0  0  0  0  0  0  0  0  0
    5.9660    2.5397   -3.9187 H   0  0  0  0  0  0  0  0  0  0  0  0
    6.1553    0.0702   -3.8505 H   0  0  0  0  0  0  0  0  0  0  0  0
    4.6812   -1.2505   -2.3858 H   0  0  0  0  0  0  0  0  0  0  0  0
    1.4466    1.5795    0.8814 H   0  0  0  0  0  0  0  0  0  0  0  0
    1.9174    2.1578    3.2232 H   0  0  0  0  0  0  0  0  0  0  0  0
    3.7074    0.9817    4.4688 H   0  0  0  0  0  0  0  0  0  0  0  0
    5.0403   -0.7838    3.3527 H   0  0  0  0  0  0  0  0  0  0  0  0
    4.5880   -1.3871    1.0056 H   0  0  0  0  0  0  0  0  0  0  0  0
  1  2  1  0
  2  3  1  0
  3  4  1  0
  4  5  1  0
  5  6  1  0
  6  7  1  0
  7  8  1  0
  8  9  1  0
  8 10  1  0
  3 11  1  0
 11 12  2  0
 12 13  1  0
 13 14  2  0
 14 15  1  0
 15 16  2  0
  2 17  1  0
 17 18  2  0
 17 19  1  0
 19 20  1  0
 20 21  2  0
 21 22  1  0
 22 23  2  0
 23 24  1  0
 24 25  2  0
 19 26  1  0
 26 27  2  0
 27 28  1  0
 28 29  2  0
 29 30  1  0
 30 31  2  0
 10  5  1  0
 16 11  1  0
 25 20  1  0
 31 26  1  0
  1 32  1  0
  1 33  1  0
  1 34  1  0
  3 35  1  6
  4 36  1  0
  4 37  1  0
  6 38  1  0
  6 39  1  0
  7 40  1  0
  7 41  1  0
  8 42  1  1
  9 43  1  0
 10 44  1  0
 10 45  1  0
 12 46  1  0
 13 47  1  0
 14 48  1  0
 15 49  1  0
 16 50  1  0
 19 51  1  0
 21 52  1  0
 22 53  1  0
 23 54  1  0
 24 55  1  0
 25 56  1  0
 27 57  1  0
 28 58  1  0
 29 59  1  0
 30 60  1  0
 31 61  1  0
M  END
$$$$
