
     RDKit          3D

 28 30  0  0  0  0  0  0  0  0999 V2000
    4.2642   -1.1378    0.8796 O   0  0  0  0  0  0  0  0  0  0  0  0
    3.8187    0.1791    0.9302 C   0  0  0  0  0  0  0  0  0  0  0  0
    3.9102    0.8347    2.0022 O   0  0  0  0  0  0  0  0  0  0  0  0
    3.1867    0.7982   -0.2749 C   0  0  0  0  0  0  0  0  0  0  0  0
    1.7405    0.5373   -0.2748 N   0  0  0  0  0  0  0  0  0  0  0  0
    0.8380    1.4339    0.4010 C   0  0  0  0  0  0  0  0  0  0  0  0
    1.2831    2.4667    0.9739 O   0  0  0  0  0  0  0  0  0  0  0  0
   -0.6139    1.1427    0.4266 C   0  0  0  0  0  0  0  0  0  0  0  0
   -1.5083    2.0252    1.0579 C   0  0  0  0  0  0  0  0  0  0  0  0
   -2.8765    1.7514    1.0822 C   0  0  0  0  0  0  0  0  0  0  0  0
   -3.3741    0.5961    0.4801 C   0  0  0  0  0  0  0  0  0  0  0  0
   -2.5026   -0.3001   -0.1545 C   0  0  0  0  0  0  0  0  0  0  0  0
   -3.0028   -1.4628   -0.7573 C   0  0  0  0  0  0  0  0  0  0  0  0
   -2.1358   -2.3559   -1.3864 C   0  0  0  0  0  0  0  0  0  0  0  0
   -0.7644   -2.1000   -1.4215 C   0  0  0  0  0  0  0  0  0  0  0  0
   -0.2383   -0.9402   -0.8253 C   0  0  0  0  0  0  0  0  0  0  0  0
    1.2172   -0.6690   -0.8633 C   0  0  0  0  0  0  0  0  0  0  0  0
    1.9977   -1.4969   -1.4094 O   0  0  0  0  0  0  0  0  0  0  0  0
   -1.1096   -0.0302   -0.1857 C   0  0  0  0  0  0  0  0  0  0  0  0
    4.6785   -1.5775    1.6926 H   0  0  0  0  0  0  0  0  0  0  0  0
    3.6574    0.3866   -1.1935 H   0  0  0  0  0  0  0  0  0  0  0  0
    3.3873    1.8915   -0.2875 H   0  0  0  0  0  0  0  0  0  0  0  0
   -1.1506    2.9299    1.5334 H   0  0  0  0  0  0  0  0  0  0  0  0
   -3.5549    2.4389    1.5709 H   0  0  0  0  0  0  0  0  0  0  0  0
   -4.4398    0.4026    0.5112 H   0  0  0  0  0  0  0  0  0  0  0  0
   -4.0640   -1.6813   -0.7413 H   0  0  0  0  0  0  0  0  0  0  0  0
   -2.5287   -3.2519   -1.8494 H   0  0  0  0  0  0  0  0  0  0  0  0
   -0.1154   -2.8111   -1.9171 H   0  0  0  0  0  0  0  0  0  0  0  0
  1  2  1  0
  2  3  2  0
  2  4  1  0
  4  5  1  0
  5  6  1  0
  6  7  2  0
  6  8  1  0
  8  9  1  0
  9 10  2  0
 10 11  1  0
 11 12  2  0
 12 13  1  0
 13 14  2  0
 14 15  1  0
 15 16  2  0
 16 17  1  0
 17 18  2  0
 16 19  1  0
 17  5  1  0
 19  8  2  0
 19 12  1  0
  1 20  1  0
  4 21  1  0
  4 22  1  0
  9 23  1  0
 10 24  1  0
 11 25  1  0
 13 26  1  0
 14 27  1  0
 15 28  1  0
M  END
$$$$
