
     RDKit          3D

 42 44  0  0  0  0  0  0  0  0999 V2000
   -1.7962    0.8721    1.4760 C   0  0  2  0  0  0  0  0  0  0  0  0
   -2.5204   -0.3564    0.8927 C   0  0  0  0  0  0  0  0  0  0  0  0
   -3.7639    0.0394    0.1378 C   0  0  0  0  0  0  0  0  0  0  0  0
   -5.0220   -0.0087    0.7619 C   0  0  0  0  0  0  0  0  0  0  0  0
   -6.1682    0.3899    0.0672 C   0  0  0  0  0  0  0  0  0  0  0  0
   -6.0662    0.8439   -1.2507 C   0  0  0  0  0  0  0  0  0  0  0  0
   -4.8173    0.9030   -1.8753 C   0  0  0  0  0  0  0  0  0  0  0  0
   -3.6686    0.5058   -1.1840 C   0  0  0  0  0  0  0  0  0  0  0  0
   -0.5290    0.4882    2.0155 O   0  0  0  0  0  0  0  0  0  0  0  0
    0.6212    0.1789    1.2698 C   0  0  0  0  0  0  0  0  0  0  0  0
    1.7534   -0.2650    1.9607 C   0  0  0  0  0  0  0  0  0  0  0  0
    2.9272   -0.5871    1.2743 C   0  0  0  0  0  0  0  0  0  0  0  0
    2.9912   -0.4672   -0.1249 C   0  0  0  0  0  0  0  0  0  0  0  0
    1.8546   -0.0174   -0.8195 C   0  0  0  0  0  0  0  0  0  0  0  0
    0.6810    0.3038   -0.1314 C   0  0  0  0  0  0  0  0  0  0  0  0
    4.2379   -0.8091   -0.8565 C   0  0  0  0  0  0  0  0  0  0  0  0
    4.9999   -1.9337   -0.4860 C   0  0  0  0  0  0  0  0  0  0  0  0
    6.1727   -2.2536   -1.1769 C   0  0  0  0  0  0  0  0  0  0  0  0
    6.5985   -1.4568   -2.2419 C   0  0  0  0  0  0  0  0  0  0  0  0
    5.8520   -0.3383   -2.6188 C   0  0  0  0  0  0  0  0  0  0  0  0
    4.6778   -0.0142   -1.9322 C   0  0  0  0  0  0  0  0  0  0  0  0
   -2.6152    1.4921    2.5701 C   0  0  0  0  0  0  0  0  0  0  0  0
   -3.3555    2.6421    2.3134 O   0  0  0  0  0  0  0  0  0  0  0  0
   -2.6650    0.9543    3.7092 O   0  0  0  0  0  0  0  0  0  0  0  0
   -1.6452    1.6433    0.6893 H   0  0  0  0  0  0  0  0  0  0  0  0
   -2.7713   -1.0704    1.7083 H   0  0  0  0  0  0  0  0  0  0  0  0
   -1.8435   -0.9023    0.2021 H   0  0  0  0  0  0  0  0  0  0  0  0
   -5.1141   -0.3500    1.7856 H   0  0  0  0  0  0  0  0  0  0  0  0
   -7.1352    0.3497    0.5516 H   0  0  0  0  0  0  0  0  0  0  0  0
   -6.9543    1.1531   -1.7866 H   0  0  0  0  0  0  0  0  0  0  0  0
   -4.7389    1.2594   -2.8942 H   0  0  0  0  0  0  0  0  0  0  0  0
   -2.7056    0.5636   -1.6762 H   0  0  0  0  0  0  0  0  0  0  0  0
    1.7237   -0.3595    3.0389 H   0  0  0  0  0  0  0  0  0  0  0  0
    3.7906   -0.9129    1.8407 H   0  0  0  0  0  0  0  0  0  0  0  0
    1.8670    0.0699   -1.8987 H   0  0  0  0  0  0  0  0  0  0  0  0
   -0.1702    0.6436   -0.7034 H   0  0  0  0  0  0  0  0  0  0  0  0
    4.6798   -2.5753    0.3253 H   0  0  0  0  0  0  0  0  0  0  0  0
    6.7502   -3.1223   -0.8881 H   0  0  0  0  0  0  0  0  0  0  0  0
    7.5069   -1.7060   -2.7750 H   0  0  0  0  0  0  0  0  0  0  0  0
    6.1850    0.2806   -3.4420 H   0  0  0  0  0  0  0  0  0  0  0  0
    4.1242    0.8671   -2.2307 H   0  0  0  0  0  0  0  0  0  0  0  0
   -3.9289    3.0625    3.0349 H   0  0  0  0  0  0  0  0  0  0  0  0
  1  2  1  0
  2  3  1  0
  3  4  2  0
  4  5  1  0
  5  6  2  0
  6  7  1  0
  7  8  2  0
  1  9  1  0
  9 10  1  0
 10 11  2  0
 11 12  1  0
 12 13  2  0
 13 14  1  0
 14 15  2  0
 13 16  1  0
 16 17  2  0
 17 18  1  0
 18 19  2  0
 19 20  1  0
 20 21  2  0
  1 22  1  0
 22 23  1  0
 22 24  2  0
  8  3  1  0
 15 10  1  0
 21 16  1  0
  1 25  1  6
  2 26  1  0
  2 27  1  0
  4 28  1  0
  5 29  1  0
  6 30  1  0
  7 31  1  0
  8 32  1  0
 11 33  1  0
 12 34  1  0
 14 35  1  0
 15 36  1  0
 17 37  1  0
 18 38  1  0
 19 39  1  0
 20 40  1  0
 21 41  1  0
 23 42  1  0
M  END
$$$$
