
     RDKit          3D

140142  0  0  0  0  0  0  0  0999 V2000
  -10.9948    4.2959    2.5034 C   0  0  0  0  0  0  0  0  0  0  0  0
  -10.7584    3.3744    1.3045 C   0  0  1  0  0  0  0  0  0  0  0  0
   -9.4216    2.8848    1.3840 O   0  0  0  0  0  0  0  0  0  0  0  0
   -9.2046    1.6114    0.7808 C   0  0  2  0  0  0  0  0  0  0  0  0
   -7.8602    1.5417    0.3426 O   0  0  0  0  0  0  0  0  0  0  0  0
   -6.9717    1.2492    1.4122 C   0  0  0  0  0  0  0  0  0  0  0  0
   -6.7500   -0.2774    1.5468 C   0  0  0  0  0  0  0  0  0  0  0  0
   -6.2802   -0.9723    0.2389 C   0  0  0  0  0  0  0  0  0  0  0  0
   -4.9574   -0.6024   -0.1167 O   0  0  0  0  0  0  0  0  0  0  0  0
   -3.8717   -1.3139    0.4914 C   0  0  1  0  0  0  0  0  0  0  0  0
   -3.0761   -0.3716    1.1697 O   0  0  0  0  0  0  0  0  0  0  0  0
   -4.2646   -2.4035    1.5406 C   0  0  0  0  0  0  0  0  0  0  0  0
   -5.5573   -3.1963    1.2449 C   0  0  0  0  0  0  0  0  0  0  0  0
   -5.2885   -4.5361    0.9031 O   0  0  0  0  0  0  0  0  0  0  0  0
   -6.4956   -2.5028    0.2330 C   0  0  0  0  0  0  0  0  0  0  0  0
   -6.4113   -3.0839   -1.1638 C   0  0  0  0  0  0  0  0  0  0  0  0
   -7.0144   -4.3102   -1.4280 O   0  0  0  0  0  0  0  0  0  0  0  0
   -5.8068   -2.4788   -2.0904 O   0  0  0  0  0  0  0  0  0  0  0  0
   -3.0356   -1.9518   -0.6585 C   0  0  0  0  0  0  0  0  0  0  0  0
   -1.5409   -2.2048   -0.3177 C   0  0  0  0  0  0  0  0  0  0  0  0
   -0.8114   -1.0029   -0.3902 O   0  0  0  0  0  0  0  0  0  0  0  0
   -0.9227   -3.2796   -1.2577 C   0  0  0  0  0  0  0  0  0  0  0  0
   -1.5580   -4.5265   -1.1040 O   0  0  0  0  0  0  0  0  0  0  0  0
    0.6104   -3.4360   -1.1178 C   0  0  0  0  0  0  0  0  0  0  0  0
    1.0982   -3.6215    0.3352 C   0  0  0  0  0  0  0  0  0  0  0  0
    2.5612   -4.1018    0.4601 C   0  0  0  0  0  0  0  0  0  0  0  0
    2.6677   -5.4661    0.1310 O   0  0  0  0  0  0  0  0  0  0  0  0
    3.5644   -3.2396   -0.3442 C   0  0  0  0  0  0  0  0  0  0  0  0
    5.0266   -3.5859   -0.0008 C   0  0  0  0  0  0  0  0  0  0  0  0
    5.3278   -3.1212    1.2921 O   0  0  0  0  0  0  0  0  0  0  0  0
    5.9919   -2.9382   -1.0119 C   0  0  0  0  0  0  0  0  0  0  0  0
    7.4702   -3.2751   -0.7023 C   0  0  0  0  0  0  0  0  0  0  0  0
    7.6619   -4.6672   -0.6423 O   0  0  0  0  0  0  0  0  0  0  0  0
    8.4411   -2.6655   -1.7350 C   0  0  0  0  0  0  0  0  0  0  0  0
    8.4571   -1.1630   -1.7431 C   0  0  0  0  0  0  0  0  0  0  0  0
    8.7919   -0.5582   -2.7961 O   0  0  0  0  0  0  0  0  0  0  0  0
    8.1123   -0.4285   -0.6041 O   0  0  0  0  0  0  0  0  0  0  0  0
    9.0533    0.1793    0.2898 C   0  0  1  0  0  0  0  0  0  0  0  0
    9.7131   -0.8908    1.1738 C   0  0  0  0  0  0  0  0  0  0  0  0
   10.0629    1.1298   -0.4490 C   0  0  2  0  0  0  0  0  0  0  0  0
   11.3485    0.4079   -0.9020 C   0  0  0  0  0  0  0  0  0  0  0  0
   10.4253    2.4188    0.3722 C   0  0  2  0  0  0  0  0  0  0  0  0
   10.3585    2.1606    1.7536 O   0  0  0  0  0  0  0  0  0  0  0  0
    9.5502    3.6606    0.0200 C   0  0  1  0  0  0  0  0  0  0  0  0
    9.9791    4.2944   -1.3130 C   0  0  0  0  0  0  0  0  0  0  0  0
    8.0735    3.3478   -0.0087 C   0  0  0  0  0  0  0  0  0  0  0  0
    7.3388    3.3218    1.1112 C   0  0  0  0  0  0  0  0  0  0  0  0
    5.8973    2.9903    1.1477 C   0  0  0  0  0  0  0  0  0  0  0  0
    5.0854    3.0453    0.0841 C   0  0  0  0  0  0  0  0  0  0  0  0
    3.6264    2.7134    0.2157 C   0  0  0  0  0  0  0  0  0  0  0  0
    2.8972    2.8964   -1.1215 C   0  0  0  0  0  0  0  0  0  0  0  0
    1.4377    2.5681   -1.0002 C   0  0  0  0  0  0  0  0  0  0  0  0
    0.5976    3.3576   -0.3254 C   0  0  0  0  0  0  0  0  0  0  0  0
   -0.8334    3.0313   -0.2279 C   0  0  0  0  0  0  0  0  0  0  0  0
   -1.6521    3.7512    0.5484 C   0  0  0  0  0  0  0  0  0  0  0  0
   -3.0744    3.4098    0.7436 C   0  0  0  0  0  0  0  0  0  0  0  0
   -3.8220    2.8299   -0.2066 C   0  0  0  0  0  0  0  0  0  0  0  0
   -5.1972    2.3412    0.0170 C   0  0  0  0  0  0  0  0  0  0  0  0
   -5.6554    1.9612    1.2201 C   0  0  0  0  0  0  0  0  0  0  0  0
  -10.1177    1.3578   -0.4330 C   0  0  1  0  0  0  0  0  0  0  0  0
   -9.7624    0.1461   -1.0504 O   0  0  0  0  0  0  0  0  0  0  0  0
  -11.6095    1.3620    0.0052 C   0  0  1  0  0  0  0  0  0  0  0  0
  -12.1177    0.0136    0.2836 N   0  0  0  0  0  0  0  0  0  0  0  0
  -11.8291    2.2558    1.2498 C   0  0  2  0  0  0  0  0  0  0  0  0
  -13.1145    2.8220    1.2054 O   0  0  0  0  0  0  0  0  0  0  0  0
  -10.2135    5.0851    2.5299 H   0  0  0  0  0  0  0  0  0  0  0  0
  -10.9464    3.7174    3.4507 H   0  0  0  0  0  0  0  0  0  0  0  0
  -11.9847    4.7937    2.4292 H   0  0  0  0  0  0  0  0  0  0  0  0
  -10.8477    3.9981    0.3867 H   0  0  0  0  0  0  0  0  0  0  0  0
   -9.4220    0.8163    1.5327 H   0  0  0  0  0  0  0  0  0  0  0  0
   -7.3642    1.6209    2.3895 H   0  0  0  0  0  0  0  0  0  0  0  0
   -7.7095   -0.7345    1.8691 H   0  0  0  0  0  0  0  0  0  0  0  0
   -6.0343   -0.4560    2.3718 H   0  0  0  0  0  0  0  0  0  0  0  0
   -6.9405   -0.5815   -0.5655 H   0  0  0  0  0  0  0  0  0  0  0  0
   -2.8620    0.3557    0.5299 H   0  0  0  0  0  0  0  0  0  0  0  0
   -4.3775   -1.9133    2.5319 H   0  0  0  0  0  0  0  0  0  0  0  0
   -3.4264   -3.1141    1.6998 H   0  0  0  0  0  0  0  0  0  0  0  0
   -6.1157   -3.2382    2.2074 H   0  0  0  0  0  0  0  0  0  0  0  0
   -4.6148   -4.5403    0.1759 H   0  0  0  0  0  0  0  0  0  0  0  0
   -7.5421   -2.6945    0.5614 H   0  0  0  0  0  0  0  0  0  0  0  0
   -6.9707   -4.7225   -2.3522 H   0  0  0  0  0  0  0  0  0  0  0  0
   -3.5143   -2.9014   -0.9661 H   0  0  0  0  0  0  0  0  0  0  0  0
   -3.0829   -1.2922   -1.5533 H   0  0  0  0  0  0  0  0  0  0  0  0
   -1.4655   -2.5762    0.7246 H   0  0  0  0  0  0  0  0  0  0  0  0
   -0.8298   -0.6936   -1.3337 H   0  0  0  0  0  0  0  0  0  0  0  0
   -1.1085   -2.9526   -2.3047 H   0  0  0  0  0  0  0  0  0  0  0  0
   -1.5520   -4.7597   -0.1402 H   0  0  0  0  0  0  0  0  0  0  0  0
    1.0986   -2.5340   -1.5467 H   0  0  0  0  0  0  0  0  0  0  0  0
    0.9206   -4.3013   -1.7402 H   0  0  0  0  0  0  0  0  0  0  0  0
    1.0037   -2.6519    0.8707 H   0  0  0  0  0  0  0  0  0  0  0  0
    0.4542   -4.3541    0.8653 H   0  0  0  0  0  0  0  0  0  0  0  0
    2.8202   -4.0073    1.5369 H   0  0  0  0  0  0  0  0  0  0  0  0
    2.5994   -5.5525   -0.8544 H   0  0  0  0  0  0  0  0  0  0  0  0
    3.3854   -2.1628   -0.1286 H   0  0  0  0  0  0  0  0  0  0  0  0
    3.3948   -3.3990   -1.4315 H   0  0  0  0  0  0  0  0  0  0  0  0
    5.1578   -4.6925   -0.0665 H   0  0  0  0  0  0  0  0  0  0  0  0
    5.2258   -3.8893    1.9126 H   0  0  0  0  0  0  0  0  0  0  0  0
    5.7446   -3.2944   -2.0364 H   0  0  0  0  0  0  0  0  0  0  0  0
    5.8478   -1.8360   -0.9920 H   0  0  0  0  0  0  0  0  0  0  0  0
    7.7233   -2.8657    0.2975 H   0  0  0  0  0  0  0  0  0  0  0  0
    7.4210   -5.0417   -1.5303 H   0  0  0  0  0  0  0  0  0  0  0  0
    8.1781   -3.0335   -2.7511 H   0  0  0  0  0  0  0  0  0  0  0  0
    9.4712   -3.0154   -1.5098 H   0  0  0  0  0  0  0  0  0  0  0  0
    8.4390    0.7934    0.9782 H   0  0  0  0  0  0  0  0  0  0  0  0
   10.2204   -1.6611    0.5572 H   0  0  0  0  0  0  0  0  0  0  0  0
   10.4531   -0.4325    1.8617 H   0  0  0  0  0  0  0  0  0  0  0  0
    8.9393   -1.3933    1.7913 H   0  0  0  0  0  0  0  0  0  0  0  0
    9.5669    1.4577   -1.3854 H   0  0  0  0  0  0  0  0  0  0  0  0
   11.9924    0.1640   -0.0306 H   0  0  0  0  0  0  0  0  0  0  0  0
   11.9266    1.0622   -1.5893 H   0  0  0  0  0  0  0  0  0  0  0  0
   11.1146   -0.5280   -1.4482 H   0  0  0  0  0  0  0  0  0  0  0  0
   11.4799    2.7002    0.1347 H   0  0  0  0  0  0  0  0  0  0  0  0
   10.8870    2.8657    2.2116 H   0  0  0  0  0  0  0  0  0  0  0  0
    9.7273    4.4417    0.7940 H   0  0  0  0  0  0  0  0  0  0  0  0
    9.3797    5.2097   -1.5076 H   0  0  0  0  0  0  0  0  0  0  0  0
    9.8364    3.5949   -2.1627 H   0  0  0  0  0  0  0  0  0  0  0  0
   11.0489    4.5909   -1.2718 H   0  0  0  0  0  0  0  0  0  0  0  0
    7.6298    3.1008   -0.9637 H   0  0  0  0  0  0  0  0  0  0  0  0
    7.8252    3.5037    2.0618 H   0  0  0  0  0  0  0  0  0  0  0  0
    5.4781    2.7303    2.1125 H   0  0  0  0  0  0  0  0  0  0  0  0
    5.4593    3.3605   -0.8809 H   0  0  0  0  0  0  0  0  0  0  0  0
    3.5219    1.6584    0.5524 H   0  0  0  0  0  0  0  0  0  0  0  0
    3.1747    3.3789    0.9835 H   0  0  0  0  0  0  0  0  0  0  0  0
    3.0117    3.9427   -1.4819 H   0  0  0  0  0  0  0  0  0  0  0  0
    3.3505    2.2199   -1.8787 H   0  0  0  0  0  0  0  0  0  0  0  0
    1.0654    1.6821   -1.5022 H   0  0  0  0  0  0  0  0  0  0  0  0
    0.9747    4.2487    0.1643 H   0  0  0  0  0  0  0  0  0  0  0  0
   -1.2076    2.1653   -0.7613 H   0  0  0  0  0  0  0  0  0  0  0  0
   -1.2469    4.5591    1.1461 H   0  0  0  0  0  0  0  0  0  0  0  0
   -3.5144    3.6751    1.6956 H   0  0  0  0  0  0  0  0  0  0  0  0
   -3.4157    2.6922   -1.2005 H   0  0  0  0  0  0  0  0  0  0  0  0
   -5.7965    2.1590   -0.8659 H   0  0  0  0  0  0  0  0  0  0  0  0
   -5.0166    2.0356    2.0907 H   0  0  0  0  0  0  0  0  0  0  0  0
   -9.9505    2.1955   -1.1519 H   0  0  0  0  0  0  0  0  0  0  0  0
  -10.1549    0.1657   -1.9622 H   0  0  0  0  0  0  0  0  0  0  0  0
  -12.1986    1.7849   -0.8408 H   0  0  0  0  0  0  0  0  0  0  0  0
  -11.4496   -0.4924    0.9099 H   0  0  0  0  0  0  0  0  0  0  0  0
  -12.1857   -0.5203   -0.6130 H   0  0  0  0  0  0  0  0  0  0  0  0
  -11.7228    1.6456    2.1789 H   0  0  0  0  0  0  0  0  0  0  0  0
  -13.7529    2.0996    1.4427 H   0  0  0  0  0  0  0  0  0  0  0  0
  1  2  1  0
  2  3  1  0
  3  4  1  0
  4  5  1  0
  5  6  1  0
  6  7  1  0
  7  8  1  0
  8  9  1  0
  9 10  1  0
 10 11  1  1
 10 12  1  0
 12 13  1  0
 13 14  1  0
 13 15  1  0
 15 16  1  0
 16 17  1  0
 16 18  2  0
 10 19  1  0
 19 20  1  0
 20 21  1  0
 20 22  1  0
 22 23  1  0
 22 24  1  0
 24 25  1  0
 25 26  1  0
 26 27  1  0
 26 28  1  0
 28 29  1  0
 29 30  1  0
 29 31  1  0
 31 32  1  0
 32 33  1  0
 32 34  1  0
 34 35  1  0
 35 36  2  0
 35 37  1  0
 37 38  1  0
 38 39  1  0
 38 40  1  0
 40 41  1  0
 40 42  1  0
 42 43  1  0
 42 44  1  0
 44 45  1  0
 44 46  1  0
 46 47  2  0
 47 48  1  0
 48 49  2  0
 49 50  1  0
 50 51  1  0
 51 52  1  0
 52 53  2  0
 53 54  1  0
 54 55  2  0
 55 56  1  0
 56 57  2  0
 57 58  1  0
 58 59  2  0
  4 60  1  0
 60 61  1  0
 60 62  1  0
 62 63  1  0
 62 64  1  0
 64 65  1  0
 64  2  1  0
 59  6  1  0
 15  8  1  0
  1 66  1  0
  1 67  1  0
  1 68  1  0
  2 69  1  6
  4 70  1  1
  6 71  1  0
  7 72  1  0
  7 73  1  0
  8 74  1  0
 11 75  1  0
 12 76  1  0
 12 77  1  0
 13 78  1  0
 14 79  1  0
 15 80  1  0
 17 81  1  0
 19 82  1  0
 19 83  1  0
 20 84  1  0
 21 85  1  0
 22 86  1  0
 23 87  1  0
 24 88  1  0
 24 89  1  0
 25 90  1  0
 25 91  1  0
 26 92  1  0
 27 93  1  0
 28 94  1  0
 28 95  1  0
 29 96  1  0
 30 97  1  0
 31 98  1  0
 31 99  1  0
 32100  1  0
 33101  1  0
 34102  1  0
 34103  1  0
 38104  1  1
 39105  1  0
 39106  1  0
 39107  1  0
 40108  1  6
 41109  1  0
 41110  1  0
 41111  1  0
 42112  1  6
 43113  1  0
 44114  1  1
 45115  1  0
 45116  1  0
 45117  1  0
 46118  1  0
 47119  1  0
 48120  1  0
 49121  1  0
 50122  1  0
 50123  1  0
 51124  1  0
 51125  1  0
 52126  1  0
 53127  1  0
 54128  1  0
 55129  1  0
 56130  1  0
 57131  1  0
 58132  1  0
 59133  1  0
 60134  1  6
 61135  1  0
 62136  1  6
 63137  1  0
 63138  1  0
 64139  1  1
 65140  1  0
M  END
$$$$
