
     RDKit          3D

 35 35  0  0  0  0  0  0  0  0999 V2000
    1.4398    4.3785    0.3405 C   0  0  0  0  0  0  0  0  0  0  0  0
    0.6023    3.1383    0.2656 C   0  0  0  0  0  0  0  0  0  0  0  0
   -0.6971    3.2401   -0.1088 N   0  0  0  0  0  0  0  0  0  0  0  0
   -1.5042    2.1576   -0.2208 C   0  0  0  0  0  0  0  0  0  0  0  0
   -1.0155    0.8661    0.0465 C   0  0  0  0  0  0  0  0  0  0  0  0
   -1.9348   -0.3324   -0.0985 C   0  0  0  0  0  0  0  0  0  0  0  0
   -3.0332   -0.0327   -0.9307 O   0  0  0  0  0  0  0  0  0  0  0  0
   -4.0417   -1.4066   -1.0150 P   0  0  0  0  0  5  0  0  0  0  0  0
   -5.4022   -1.0336   -1.9490 O   0  0  0  0  0  0  0  0  0  0  0  0
   -4.5475   -1.8604    0.5353 O   0  0  0  0  0  0  0  0  0  0  0  0
   -3.3004   -2.5570   -1.6593 O   0  0  0  0  0  0  0  0  0  0  0  0
    0.3215    0.7316    0.5135 C   0  0  0  0  0  0  0  0  0  0  0  0
    0.8795   -0.6163    0.9289 C   0  0  0  0  0  0  0  0  0  0  0  0
    1.7031   -1.1699   -0.1520 N   0  0  0  0  0  0  0  0  0  0  0  0
    2.3179   -2.4325    0.2686 C   0  0  0  0  0  0  0  0  0  0  0  0
    3.2313   -2.9291   -0.8050 C   0  0  0  0  0  0  0  0  0  0  0  0
    4.5371   -2.4545   -0.8772 O   0  0  0  0  0  0  0  0  0  0  0  0
    2.8077   -3.7432   -1.6684 O   0  0  0  0  0  0  0  0  0  0  0  0
    1.1474    1.8827    0.5729 C   0  0  0  0  0  0  0  0  0  0  0  0
    2.5003    1.8114    0.9244 O   0  0  0  0  0  0  0  0  0  0  0  0
    1.8352    4.5044    1.3704 H   0  0  0  0  0  0  0  0  0  0  0  0
    2.2874    4.3034   -0.3727 H   0  0  0  0  0  0  0  0  0  0  0  0
    0.8366    5.2745    0.0811 H   0  0  0  0  0  0  0  0  0  0  0  0
   -2.5307    2.3144   -0.5235 H   0  0  0  0  0  0  0  0  0  0  0  0
   -1.3573   -1.1693   -0.5496 H   0  0  0  0  0  0  0  0  0  0  0  0
   -2.2787   -0.6140    0.9219 H   0  0  0  0  0  0  0  0  0  0  0  0
   -5.0358   -0.6950   -2.8046 H   0  0  0  0  0  0  0  0  0  0  0  0
   -5.0148   -1.0626    0.8902 H   0  0  0  0  0  0  0  0  0  0  0  0
    1.4830   -0.4908    1.8541 H   0  0  0  0  0  0  0  0  0  0  0  0
    0.0757   -1.3292    1.2108 H   0  0  0  0  0  0  0  0  0  0  0  0
    1.0736   -1.3736   -0.9645 H   0  0  0  0  0  0  0  0  0  0  0  0
    1.5355   -3.1972    0.4773 H   0  0  0  0  0  0  0  0  0  0  0  0
    2.9176   -2.2793    1.1929 H   0  0  0  0  0  0  0  0  0  0  0  0
    5.1639   -2.7679   -1.6087 H   0  0  0  0  0  0  0  0  0  0  0  0
    2.9976    0.9443    1.0772 H   0  0  0  0  0  0  0  0  0  0  0  0
  1  2  1  0
  2  3  2  0
  3  4  1  0
  4  5  2  0
  5  6  1  0
  6  7  1  0
  7  8  1  0
  8  9  1  0
  8 10  1  0
  8 11  2  0
  5 12  1  0
 12 13  1  0
 13 14  1  0
 14 15  1  0
 15 16  1  0
 16 17  1  0
 16 18  2  0
 12 19  2  0
 19 20  1  0
 19  2  1  0
  1 21  1  0
  1 22  1  0
  1 23  1  0
  4 24  1  0
  6 25  1  0
  6 26  1  0
  9 27  1  0
 10 28  1  0
 13 29  1  0
 13 30  1  0
 14 31  1  0
 15 32  1  0
 15 33  1  0
 17 34  1  0
 20 35  1  0
M  END
$$$$
