
     RDKit          3D

 44 47  0  0  0  0  0  0  0  0999 V2000
   -1.5761    0.3586   -0.6230 C   0  0  2  0  0  0  0  0  0  0  0  0
   -2.4727    1.5501   -0.9401 C   0  0  0  0  0  0  0  0  0  0  0  0
   -3.8881    1.0617   -0.5786 C   0  0  0  0  0  0  0  0  0  0  0  0
   -3.7072   -0.2955    0.1494 C   0  0  2  0  0  0  0  0  0  0  0  0
   -4.6214   -0.5023    1.2020 O   0  0  0  0  0  0  0  0  0  0  0  0
   -2.2296   -0.3083    0.5961 C   0  0  2  0  0  0  0  0  0  0  0  0
   -2.0660    0.4960    1.9259 C   0  0  0  0  0  0  0  0  0  0  0  0
   -1.6123   -1.7144    0.7535 C   0  0  0  0  0  0  0  0  0  0  0  0
   -0.0685   -1.6465    0.8845 C   0  0  0  0  0  0  0  0  0  0  0  0
    0.6124   -0.8161   -0.2486 C   0  0  2  0  0  0  0  0  0  0  0  0
    2.1258   -0.6584   -0.0895 C   0  0  0  0  0  0  0  0  0  0  0  0
    2.7930    0.4572   -0.6682 C   0  0  0  0  0  0  0  0  0  0  0  0
    2.0448    1.6079   -1.3067 C   0  0  0  0  0  0  0  0  0  0  0  0
    0.5802    1.2896   -1.6192 C   0  0  0  0  0  0  0  0  0  0  0  0
   -0.0644    0.5764   -0.4243 C   0  0  1  0  0  0  0  0  0  0  0  0
    4.1912    0.5559   -0.5814 C   0  0  0  0  0  0  0  0  0  0  0  0
    4.9422   -0.4509    0.0245 C   0  0  0  0  0  0  0  0  0  0  0  0
    6.3284   -0.3293    0.0927 O   0  0  0  0  0  0  0  0  0  0  0  0
    4.2989   -1.5716    0.5525 C   0  0  0  0  0  0  0  0  0  0  0  0
    2.9093   -1.6828    0.4856 C   0  0  0  0  0  0  0  0  0  0  0  0
   -1.6794   -0.3265   -1.5017 H   0  0  0  0  0  0  0  0  0  0  0  0
   -2.1895    2.4294   -0.3214 H   0  0  0  0  0  0  0  0  0  0  0  0
   -2.4095    1.8254   -2.0155 H   0  0  0  0  0  0  0  0  0  0  0  0
   -4.4987    0.9223   -1.4973 H   0  0  0  0  0  0  0  0  0  0  0  0
   -4.3880    1.8189    0.0633 H   0  0  0  0  0  0  0  0  0  0  0  0
   -3.8692   -1.1060   -0.5970 H   0  0  0  0  0  0  0  0  0  0  0  0
   -4.7214    0.3429    1.7109 H   0  0  0  0  0  0  0  0  0  0  0  0
   -2.5814   -0.0322    2.7559 H   0  0  0  0  0  0  0  0  0  0  0  0
   -2.5012    1.5137    1.8489 H   0  0  0  0  0  0  0  0  0  0  0  0
   -1.0124    0.6088    2.2411 H   0  0  0  0  0  0  0  0  0  0  0  0
   -1.8646   -2.3424   -0.1298 H   0  0  0  0  0  0  0  0  0  0  0  0
   -2.0382   -2.2201    1.6473 H   0  0  0  0  0  0  0  0  0  0  0  0
    0.2885   -2.6962    0.8448 H   0  0  0  0  0  0  0  0  0  0  0  0
    0.2182   -1.2406    1.8772 H   0  0  0  0  0  0  0  0  0  0  0  0
    0.4632   -1.3933   -1.1895 H   0  0  0  0  0  0  0  0  0  0  0  0
    2.0839    2.4754   -0.6123 H   0  0  0  0  0  0  0  0  0  0  0  0
    2.5506    1.9075   -2.2506 H   0  0  0  0  0  0  0  0  0  0  0  0
    0.0534    2.2444   -1.8319 H   0  0  0  0  0  0  0  0  0  0  0  0
    0.5185    0.6536   -2.5302 H   0  0  0  0  0  0  0  0  0  0  0  0
    0.1130    1.2071    0.4721 H   0  0  0  0  0  0  0  0  0  0  0  0
    4.7010    1.4207   -0.9895 H   0  0  0  0  0  0  0  0  0  0  0  0
    6.9023   -1.0438    0.5252 H   0  0  0  0  0  0  0  0  0  0  0  0
    4.8768   -2.3648    1.0099 H   0  0  0  0  0  0  0  0  0  0  0  0
    2.4642   -2.5817    0.8829 H   0  0  0  0  0  0  0  0  0  0  0  0
  1  2  1  0
  2  3  1  0
  3  4  1  0
  4  5  1  0
  4  6  1  0
  6  7  1  1
  6  8  1  0
  8  9  1  0
  9 10  1  0
 10 11  1  0
 11 12  2  0
 12 13  1  0
 13 14  1  0
 14 15  1  0
 12 16  1  0
 16 17  2  0
 17 18  1  0
 17 19  1  0
 19 20  2  0
  6  1  1  0
 15 10  1  0
 15  1  1  0
 20 11  1  0
  1 21  1  6
  2 22  1  0
  2 23  1  0
  3 24  1  0
  3 25  1  0
  4 26  1  6
  5 27  1  0
  7 28  1  0
  7 29  1  0
  7 30  1  0
  8 31  1  0
  8 32  1  0
  9 33  1  0
  9 34  1  0
 10 35  1  6
 13 36  1  0
 13 37  1  0
 14 38  1  0
 14 39  1  0
 15 40  1  1
 16 41  1  0
 18 42  1  0
 19 43  1  0
 20 44  1  0
M  END
$$$$
