
     RDKit          3D

 30 30  0  0  0  0  0  0  0  0999 V2000
    3.3915    1.0587   -0.3282 C   0  0  0  0  0  0  0  0  0  0  0  0
    2.7764   -0.3364   -0.2016 C   0  0  0  0  0  0  0  0  0  0  0  0
    3.4159   -1.2569   -1.1427 N   0  0  0  0  0  0  0  0  0  0  0  0
    1.2974   -0.2620   -0.4715 C   0  0  0  0  0  0  0  0  0  0  0  0
    0.8808   -0.2122   -1.6616 O   0  0  0  0  0  0  0  0  0  0  0  0
    0.3685   -0.2087    0.6202 N   0  0  0  0  0  0  0  0  0  0  0  0
   -1.0405   -0.0275    0.4140 C   0  0  0  0  0  0  0  0  0  0  0  0
   -1.5445    1.2039   -0.0690 C   0  0  0  0  0  0  0  0  0  0  0  0
   -0.6314    2.3610   -0.3747 C   0  0  0  0  0  0  0  0  0  0  0  0
   -2.9236    1.3469   -0.2867 C   0  0  0  0  0  0  0  0  0  0  0  0
   -3.7992    0.3034    0.0115 C   0  0  0  0  0  0  0  0  0  0  0  0
   -3.3106   -0.8982    0.5230 C   0  0  0  0  0  0  0  0  0  0  0  0
   -1.9332   -1.0772    0.7241 C   0  0  0  0  0  0  0  0  0  0  0  0
   -1.4225   -2.3832    1.2692 C   0  0  0  0  0  0  0  0  0  0  0  0
    3.2658    1.4484   -1.3614 H   0  0  0  0  0  0  0  0  0  0  0  0
    2.9038    1.7585    0.3841 H   0  0  0  0  0  0  0  0  0  0  0  0
    4.4757    1.0198   -0.0900 H   0  0  0  0  0  0  0  0  0  0  0  0
    2.9454   -0.7033    0.8361 H   0  0  0  0  0  0  0  0  0  0  0  0
    4.4277   -1.3371   -0.8891 H   0  0  0  0  0  0  0  0  0  0  0  0
    3.0071   -2.2092   -0.9977 H   0  0  0  0  0  0  0  0  0  0  0  0
    0.7039   -0.4319    1.5840 H   0  0  0  0  0  0  0  0  0  0  0  0
   -0.2209    2.2529   -1.3997 H   0  0  0  0  0  0  0  0  0  0  0  0
    0.2047    2.4069    0.3544 H   0  0  0  0  0  0  0  0  0  0  0  0
   -1.1789    3.3257   -0.3125 H   0  0  0  0  0  0  0  0  0  0  0  0
   -3.3247    2.2743   -0.6770 H   0  0  0  0  0  0  0  0  0  0  0  0
   -4.8623    0.4286   -0.1495 H   0  0  0  0  0  0  0  0  0  0  0  0
   -4.0093   -1.6924    0.7557 H   0  0  0  0  0  0  0  0  0  0  0  0
   -2.2266   -3.1480    1.3195 H   0  0  0  0  0  0  0  0  0  0  0  0
   -1.0208   -2.2275    2.2923 H   0  0  0  0  0  0  0  0  0  0  0  0
   -0.6157   -2.7770    0.6155 H   0  0  0  0  0  0  0  0  0  0  0  0
  1  2  1  0
  2  3  1  0
  2  4  1  0
  4  5  2  0
  4  6  1  0
  6  7  1  0
  7  8  2  0
  8  9  1  0
  8 10  1  0
 10 11  2  0
 11 12  1  0
 12 13  2  0
 13 14  1  0
 13  7  1  0
  1 15  1  0
  1 16  1  0
  1 17  1  0
  2 18  1  0
  3 19  1  0
  3 20  1  0
  6 21  1  0
  9 22  1  0
  9 23  1  0
  9 24  1  0
 10 25  1  0
 11 26  1  0
 12 27  1  0
 14 28  1  0
 14 29  1  0
 14 30  1  0
M  END
$$$$
