
     RDKit          3D

 26 27  0  0  0  0  0  0  0  0999 V2000
    2.8740    2.6687    0.6542 O   0  0  0  0  0  0  0  0  0  0  0  0
    3.1627    1.6340   -0.2318 C   0  0  0  0  0  0  0  0  0  0  0  0
    4.1419    1.7485   -1.0164 O   0  0  0  0  0  0  0  0  0  0  0  0
    2.2825    0.4459   -0.2876 C   0  0  0  0  0  0  0  0  0  0  0  0
    2.7596   -0.8462   -0.6224 C   0  0  0  0  0  0  0  0  0  0  0  0
    4.1161   -1.1264   -0.8021 O   0  0  0  0  0  0  0  0  0  0  0  0
    1.8553   -1.9059   -0.7477 C   0  0  0  0  0  0  0  0  0  0  0  0
    0.4948   -1.7149   -0.5070 C   0  0  0  0  0  0  0  0  0  0  0  0
    0.0101   -0.4517   -0.1391 C   0  0  0  0  0  0  0  0  0  0  0  0
    0.9113    0.6200   -0.0269 C   0  0  0  0  0  0  0  0  0  0  0  0
   -1.4334   -0.2480    0.1356 C   0  0  0  0  0  0  0  0  0  0  0  0
   -2.4183   -0.7410   -0.7448 C   0  0  0  0  0  0  0  0  0  0  0  0
   -2.0706   -1.3810   -1.8902 F   0  0  0  0  0  0  0  0  0  0  0  0
   -3.7747   -0.5424   -0.4654 C   0  0  0  0  0  0  0  0  0  0  0  0
   -4.1625    0.1470    0.6861 C   0  0  0  0  0  0  0  0  0  0  0  0
   -5.4783    0.3371    0.9519 F   0  0  0  0  0  0  0  0  0  0  0  0
   -3.1942    0.6441    1.5611 C   0  0  0  0  0  0  0  0  0  0  0  0
   -1.8370    0.4505    1.2885 C   0  0  0  0  0  0  0  0  0  0  0  0
    3.4531    3.4991    0.6908 H   0  0  0  0  0  0  0  0  0  0  0  0
    4.8559   -0.4785   -0.5696 H   0  0  0  0  0  0  0  0  0  0  0  0
    2.2154   -2.8935   -1.0074 H   0  0  0  0  0  0  0  0  0  0  0  0
   -0.1755   -2.5621   -0.5819 H   0  0  0  0  0  0  0  0  0  0  0  0
    0.5342    1.6042    0.2263 H   0  0  0  0  0  0  0  0  0  0  0  0
   -4.5268   -0.9187   -1.1471 H   0  0  0  0  0  0  0  0  0  0  0  0
   -3.4941    1.1784    2.4535 H   0  0  0  0  0  0  0  0  0  0  0  0
   -1.1016    0.8331    1.9856 H   0  0  0  0  0  0  0  0  0  0  0  0
  1  2  1  0
  2  3  2  0
  2  4  1  0
  4  5  2  0
  5  6  1  0
  5  7  1  0
  7  8  2  0
  8  9  1  0
  9 10  2  0
  9 11  1  0
 11 12  2  0
 12 13  1  0
 12 14  1  0
 14 15  2  0
 15 16  1  0
 15 17  1  0
 17 18  2  0
 10  4  1  0
 18 11  1  0
  1 19  1  0
  6 20  1  0
  7 21  1  0
  8 22  1  0
 10 23  1  0
 14 24  1  0
 17 25  1  0
 18 26  1  0
M  END
$$$$
