
     RDKit          3D

 72 73  0  0  0  0  0  0  0  0999 V2000
    2.1203   -3.4854   -2.8223 C   0  0  0  0  0  0  0  0  0  0  0  0
    2.5397   -2.0640   -2.5979 C   0  0  0  0  0  0  0  0  0  0  0  0
    2.1660   -1.3502   -1.5191 C   0  0  0  0  0  0  0  0  0  0  0  0
    1.3008   -1.9460   -0.5426 N   0  0  0  0  0  0  0  0  0  0  0  0
   -0.1006   -2.1223   -0.7861 C   0  0  0  0  0  0  0  0  0  0  0  0
   -0.6167   -3.2547   -0.5805 O   0  0  0  0  0  0  0  0  0  0  0  0
   -0.9720   -0.9848   -1.2661 C   0  0  1  0  0  0  0  0  0  0  0  0
   -1.3619   -1.2099   -2.7400 C   0  0  0  0  0  0  0  0  0  0  0  0
   -1.8554    0.3225   -3.6177 S   0  0  0  0  0  0  0  0  0  0  0  0
    0.1353    1.0607   -3.9162 S   0  0  0  0  0  0  0  0  0  0  0  0
   -0.2311    2.8115   -3.4935 C   0  0  0  0  0  0  0  0  0  0  0  0
    0.5863    3.2870   -2.2850 C   0  0  0  0  0  0  0  0  0  0  0  0
    0.1061    2.6281   -1.0266 C   0  0  0  0  0  0  0  0  0  0  0  0
    0.8074    2.6417    0.1140 C   0  0  0  0  0  0  0  0  0  0  0  0
    0.3977    1.7681    1.2800 C   0  0  2  0  0  0  0  0  0  0  0  0
   -0.9355    2.2387    1.8905 C   0  0  0  0  0  0  0  0  0  0  0  0
   -1.5233    1.1545    2.7559 C   0  0  0  0  0  0  0  0  0  0  0  0
   -1.0492    0.9812    3.9106 O   0  0  0  0  0  0  0  0  0  0  0  0
   -2.5313    0.2477    2.2755 N   0  0  0  0  0  0  0  0  0  0  0  0
   -3.4986    0.5735    1.2172 C   0  0  2  0  0  0  0  0  0  0  0  0
   -4.8071   -0.2503    1.3913 C   0  0  0  0  0  0  0  0  0  0  0  0
   -5.8130    0.0263    0.2600 C   0  0  0  0  0  0  0  0  0  0  0  0
   -5.4732    0.0578    2.7431 C   0  0  0  0  0  0  0  0  0  0  0  0
   -2.8695    0.3288   -0.1326 C   0  0  0  0  0  0  0  0  0  0  0  0
   -3.0439    1.1754   -1.0468 O   0  0  0  0  0  0  0  0  0  0  0  0
   -2.1586   -0.8899   -0.3952 N   0  0  0  0  0  0  0  0  0  0  0  0
    1.4054    1.8091    2.2918 O   0  0  0  0  0  0  0  0  0  0  0  0
    2.6515    1.1664    2.2353 C   0  0  0  0  0  0  0  0  0  0  0  0
    3.5526    1.5788    3.0142 O   0  0  0  0  0  0  0  0  0  0  0  0
    2.9523    0.0344    1.2575 C   0  0  1  0  0  0  0  0  0  0  0  0
    3.0968    0.6106   -0.0845 N   0  0  0  0  0  0  0  0  0  0  0  0
    2.7114    0.0276   -1.3480 C   0  0  0  0  0  0  0  0  0  0  0  0
    2.9313    0.7044   -2.3888 O   0  0  0  0  0  0  0  0  0  0  0  0
    4.2378   -0.7572    1.6704 C   0  0  0  0  0  0  0  0  0  0  0  0
    4.7618   -1.6980    0.5732 C   0  0  0  0  0  0  0  0  0  0  0  0
    3.9911   -1.5712    2.9522 C   0  0  0  0  0  0  0  0  0  0  0  0
    1.0222   -3.5476   -2.9632 H   0  0  0  0  0  0  0  0  0  0  0  0
    2.6130   -3.8795   -3.7356 H   0  0  0  0  0  0  0  0  0  0  0  0
    2.4229   -4.1141   -1.9585 H   0  0  0  0  0  0  0  0  0  0  0  0
    3.2122   -1.6289   -3.3282 H   0  0  0  0  0  0  0  0  0  0  0  0
    1.7396   -2.6413    0.1012 H   0  0  0  0  0  0  0  0  0  0  0  0
   -0.3729   -0.0640   -1.1856 H   0  0  0  0  0  0  0  0  0  0  0  0
   -2.2051   -1.9313   -2.7923 H   0  0  0  0  0  0  0  0  0  0  0  0
   -0.5144   -1.6577   -3.3016 H   0  0  0  0  0  0  0  0  0  0  0  0
   -1.3148    2.9764   -3.3122 H   0  0  0  0  0  0  0  0  0  0  0  0
    0.0497    3.4306   -4.3712 H   0  0  0  0  0  0  0  0  0  0  0  0
    0.4783    4.3872   -2.1759 H   0  0  0  0  0  0  0  0  0  0  0  0
    1.6603    3.0580   -2.4528 H   0  0  0  0  0  0  0  0  0  0  0  0
   -0.8186    2.0806   -1.0635 H   0  0  0  0  0  0  0  0  0  0  0  0
    1.7374    3.2012    0.1661 H   0  0  0  0  0  0  0  0  0  0  0  0
    0.2737    0.7253    0.9190 H   0  0  0  0  0  0  0  0  0  0  0  0
   -1.6537    2.5316    1.1011 H   0  0  0  0  0  0  0  0  0  0  0  0
   -0.7611    3.1470    2.5078 H   0  0  0  0  0  0  0  0  0  0  0  0
   -2.6152   -0.6708    2.7681 H   0  0  0  0  0  0  0  0  0  0  0  0
   -3.7717    1.6497    1.3007 H   0  0  0  0  0  0  0  0  0  0  0  0
   -4.5611   -1.3352    1.3709 H   0  0  0  0  0  0  0  0  0  0  0  0
   -5.4109   -0.3188   -0.7156 H   0  0  0  0  0  0  0  0  0  0  0  0
   -6.0399    1.1121    0.1949 H   0  0  0  0  0  0  0  0  0  0  0  0
   -6.7595   -0.5268    0.4403 H   0  0  0  0  0  0  0  0  0  0  0  0
   -4.8016   -0.2046    3.5865 H   0  0  0  0  0  0  0  0  0  0  0  0
   -5.7316    1.1363    2.8149 H   0  0  0  0  0  0  0  0  0  0  0  0
   -6.4024   -0.5399    2.8593 H   0  0  0  0  0  0  0  0  0  0  0  0
   -2.3989   -1.7008    0.2191 H   0  0  0  0  0  0  0  0  0  0  0  0
    2.0868   -0.6459    1.2985 H   0  0  0  0  0  0  0  0  0  0  0  0
    3.6367    1.5047   -0.1464 H   0  0  0  0  0  0  0  0  0  0  0  0
    5.0586   -0.0333    1.8719 H   0  0  0  0  0  0  0  0  0  0  0  0
    4.0178   -2.4799    0.3258 H   0  0  0  0  0  0  0  0  0  0  0  0
    5.0274   -1.1311   -0.3426 H   0  0  0  0  0  0  0  0  0  0  0  0
    5.6880   -2.2044    0.9198 H   0  0  0  0  0  0  0  0  0  0  0  0
    3.6760   -0.9133    3.7881 H   0  0  0  0  0  0  0  0  0  0  0  0
    3.1995   -2.3327    2.7830 H   0  0  0  0  0  0  0  0  0  0  0  0
    4.9229   -2.0892    3.2649 H   0  0  0  0  0  0  0  0  0  0  0  0
  1  2  1  0
  2  3  2  0
  3  4  1  0
  4  5  1  0
  5  6  2  0
  5  7  1  0
  7  8  1  0
  8  9  1  0
  9 10  1  0
 10 11  1  0
 11 12  1  0
 12 13  1  0
 13 14  2  0
 14 15  1  0
 15 16  1  0
 16 17  1  0
 17 18  2  0
 17 19  1  0
 19 20  1  0
 20 21  1  0
 21 22  1  0
 21 23  1  0
 20 24  1  0
 24 25  2  0
 24 26  1  0
 15 27  1  0
 27 28  1  0
 28 29  2  0
 28 30  1  0
 30 31  1  0
 31 32  1  0
 32 33  2  0
 30 34  1  0
 34 35  1  0
 34 36  1  0
 32  3  1  0
 26  7  1  0
  1 37  1  0
  1 38  1  0
  1 39  1  0
  2 40  1  0
  4 41  1  0
  7 42  1  6
  8 43  1  0
  8 44  1  0
 11 45  1  0
 11 46  1  0
 12 47  1  0
 12 48  1  0
 13 49  1  0
 14 50  1  0
 15 51  1  6
 16 52  1  0
 16 53  1  0
 19 54  1  0
 20 55  1  6
 21 56  1  0
 22 57  1  0
 22 58  1  0
 22 59  1  0
 23 60  1  0
 23 61  1  0
 23 62  1  0
 26 63  1  0
 30 64  1  6
 31 65  1  0
 34 66  1  0
 35 67  1  0
 35 68  1  0
 35 69  1  0
 36 70  1  0
 36 71  1  0
 36 72  1  0
M  END
$$$$
