
     RDKit          3D

 31 33  0  0  0  0  0  0  0  0999 V2000
    4.9515    2.5079   -0.7239 O   0  0  0  0  0  0  0  0  0  0  0  0
    4.1513    1.3752   -0.5928 C   0  0  0  0  0  0  0  0  0  0  0  0
    2.7650    1.5201   -0.4763 C   0  0  0  0  0  0  0  0  0  0  0  0
    1.9461    0.3933   -0.3445 C   0  0  0  0  0  0  0  0  0  0  0  0
    2.5182   -0.8970   -0.3266 C   0  0  0  0  0  0  0  0  0  0  0  0
    3.9132   -1.0366   -0.4444 C   0  0  0  0  0  0  0  0  0  0  0  0
    4.7227    0.0956   -0.5771 C   0  0  0  0  0  0  0  0  0  0  0  0
    1.6639   -2.0016   -0.1827 C   0  0  0  0  0  0  0  0  0  0  0  0
    2.1307   -3.1734   -0.1511 O   0  0  0  0  0  0  0  0  0  0  0  0
    0.2808   -1.7939   -0.0653 C   0  0  0  0  0  0  0  0  0  0  0  0
   -0.5889   -2.8699    0.1282 O   0  0  0  0  0  0  0  0  0  0  0  0
   -0.2150   -0.4744   -0.1159 C   0  0  0  0  0  0  0  0  0  0  0  0
    0.6308    0.5465   -0.2392 O   0  0  0  0  0  0  0  0  0  0  0  0
   -1.6616   -0.1739   -0.0178 C   0  0  0  0  0  0  0  0  0  0  0  0
   -2.6144   -0.9279   -0.7209 C   0  0  0  0  0  0  0  0  0  0  0  0
   -3.9709   -0.6104   -0.6311 C   0  0  0  0  0  0  0  0  0  0  0  0
   -4.4023    0.4690    0.1476 C   0  0  0  0  0  0  0  0  0  0  0  0
   -5.7730    0.7306    0.1985 O   0  0  0  0  0  0  0  0  0  0  0  0
   -3.4481    1.2488    0.8427 C   0  0  0  0  0  0  0  0  0  0  0  0
   -3.8009    2.3459    1.6313 O   0  0  0  0  0  0  0  0  0  0  0  0
   -2.0893    0.9227    0.7463 C   0  0  0  0  0  0  0  0  0  0  0  0
    5.9587    2.4376   -0.8105 H   0  0  0  0  0  0  0  0  0  0  0  0
    2.3242    2.5094   -0.4894 H   0  0  0  0  0  0  0  0  0  0  0  0
    4.3786   -2.0145   -0.4330 H   0  0  0  0  0  0  0  0  0  0  0  0
    5.7951   -0.0225   -0.6669 H   0  0  0  0  0  0  0  0  0  0  0  0
   -0.2628   -3.8276    0.1782 H   0  0  0  0  0  0  0  0  0  0  0  0
   -2.3112   -1.7472   -1.3600 H   0  0  0  0  0  0  0  0  0  0  0  0
   -4.6934   -1.2034   -1.1777 H   0  0  0  0  0  0  0  0  0  0  0  0
   -6.1849    1.4819    0.7328 H   0  0  0  0  0  0  0  0  0  0  0  0
   -4.7499    2.6653    1.7621 H   0  0  0  0  0  0  0  0  0  0  0  0
   -1.3645    1.5243    1.2823 H   0  0  0  0  0  0  0  0  0  0  0  0
  1  2  1  0
  2  3  2  0
  3  4  1  0
  4  5  2  0
  5  6  1  0
  6  7  2  0
  5  8  1  0
  8  9  2  0
  8 10  1  0
 10 11  1  0
 10 12  2  0
 12 13  1  0
 12 14  1  0
 14 15  2  0
 15 16  1  0
 16 17  2  0
 17 18  1  0
 17 19  1  0
 19 20  1  0
 19 21  2  0
  7  2  1  0
 21 14  1  0
 13  4  1  0
  1 22  1  0
  3 23  1  0
  6 24  1  0
  7 25  1  0
 11 26  1  0
 15 27  1  0
 16 28  1  0
 18 29  1  0
 20 30  1  0
 21 31  1  0
M  END
$$$$
