
     RDKit          3D

 81 83  0  0  0  0  0  0  0  0999 V2000
    1.0076   -4.9748    2.4062 C   0  0  0  0  0  0  0  0  0  0  0  0
   -0.2411   -4.0791    2.4388 C   0  0  0  0  0  0  0  0  0  0  0  0
   -1.5083   -4.9308    2.6051 C   0  0  0  0  0  0  0  0  0  0  0  0
   -0.3489   -3.1315    1.2122 C   0  0  1  0  0  0  0  0  0  0  0  0
    0.8029   -2.2212    1.1538 N   0  0  0  0  0  0  0  0  0  0  0  0
    0.8851   -1.0440    1.9779 C   0  0  0  0  0  0  0  0  0  0  0  0
    0.0158   -0.8446    2.8705 O   0  0  0  0  0  0  0  0  0  0  0  0
    1.9348   -0.0220    1.7521 C   0  0  0  0  0  0  0  0  0  0  0  0
    1.6825    1.3207    2.0827 C   0  0  0  0  0  0  0  0  0  0  0  0
    2.6247    2.3115    1.7990 C   0  0  0  0  0  0  0  0  0  0  0  0
    3.8423    1.9788    1.1875 C   0  0  0  0  0  0  0  0  0  0  0  0
    4.1236    0.6323    0.9120 C   0  0  0  0  0  0  0  0  0  0  0  0
    3.1778   -0.3596    1.1876 C   0  0  0  0  0  0  0  0  0  0  0  0
    4.8312    3.0278    0.8585 C   0  0  0  0  0  0  0  0  0  0  0  0
    6.0577    2.7834    1.0212 O   0  0  0  0  0  0  0  0  0  0  0  0
    4.4264    4.3098    0.3380 N   0  0  0  0  0  0  0  0  0  0  0  0
    3.2216    4.4524   -0.4872 C   0  0  0  0  0  0  0  0  0  0  0  0
    3.4683    5.4958   -1.5804 C   0  0  0  0  0  0  0  0  0  0  0  0
    3.9475    6.7047   -1.0217 O   0  0  0  0  0  0  0  0  0  0  0  0
    5.2215    6.4929   -0.4425 C   0  0  0  0  0  0  0  0  0  0  0  0
    5.1276    5.5307    0.7460 C   0  0  0  0  0  0  0  0  0  0  0  0
   -0.4994   -3.8875   -0.0982 C   0  0  0  0  0  0  0  0  0  0  0  0
    0.5075   -4.4713   -0.5849 O   0  0  0  0  0  0  0  0  0  0  0  0
   -1.7683   -4.0050   -0.7753 N   0  0  0  0  0  0  0  0  0  0  0  0
   -2.0214   -5.0504   -1.7547 C   0  0  0  0  0  0  0  0  0  0  0  0
   -3.4085   -4.7709   -2.3194 C   0  0  0  0  0  0  0  0  0  0  0  0
   -4.0615   -3.7903   -1.3503 C   0  0  0  0  0  0  0  0  0  0  0  0
   -2.9086   -3.1110   -0.6078 C   0  0  2  0  0  0  0  0  0  0  0  0
   -2.5963   -1.7591   -1.2023 C   0  0  0  0  0  0  0  0  0  0  0  0
   -2.3432   -1.6658   -2.4349 O   0  0  0  0  0  0  0  0  0  0  0  0
   -2.5644   -0.5910   -0.3680 N   0  0  0  0  0  0  0  0  0  0  0  0
   -2.3544    0.7648   -0.8910 C   0  0  2  0  0  0  0  0  0  0  0  0
   -0.9077    1.2415   -0.5872 C   0  0  0  0  0  0  0  0  0  0  0  0
    0.1252    0.3561   -1.3018 C   0  0  0  0  0  0  0  0  0  0  0  0
   -0.6835    2.7064   -0.9999 C   0  0  0  0  0  0  0  0  0  0  0  0
   -3.3921    1.6812   -0.2729 C   0  0  0  0  0  0  0  0  0  0  0  0
   -3.3998    1.8463    0.9391 O   0  0  0  0  0  0  0  0  0  0  0  0
   -4.4551    2.3470   -1.1165 C   0  0  0  0  0  0  0  0  0  0  0  0
   -4.9591    3.4464   -0.4402 F   0  0  0  0  0  0  0  0  0  0  0  0
   -3.9010    2.7928   -2.3048 F   0  0  0  0  0  0  0  0  0  0  0  0
   -5.6033    1.3786   -1.4198 C   0  0  0  0  0  0  0  0  0  0  0  0
   -6.1626    0.9163   -0.2411 F   0  0  0  0  0  0  0  0  0  0  0  0
   -6.5793    2.0329   -2.1496 F   0  0  0  0  0  0  0  0  0  0  0  0
   -5.1460    0.3006   -2.1572 F   0  0  0  0  0  0  0  0  0  0  0  0
    1.9233   -4.3660    2.2527 H   0  0  0  0  0  0  0  0  0  0  0  0
    1.1124   -5.5085    3.3749 H   0  0  0  0  0  0  0  0  0  0  0  0
    0.9357   -5.7352    1.6009 H   0  0  0  0  0  0  0  0  0  0  0  0
   -0.1608   -3.4446    3.3487 H   0  0  0  0  0  0  0  0  0  0  0  0
   -1.4486   -5.5246    3.5421 H   0  0  0  0  0  0  0  0  0  0  0  0
   -1.6328   -5.6297    1.7507 H   0  0  0  0  0  0  0  0  0  0  0  0
   -2.4044   -4.2776    2.6682 H   0  0  0  0  0  0  0  0  0  0  0  0
   -1.2477   -2.5065    1.3631 H   0  0  0  0  0  0  0  0  0  0  0  0
    1.5110   -2.3577    0.3991 H   0  0  0  0  0  0  0  0  0  0  0  0
    0.7427    1.6106    2.5361 H   0  0  0  0  0  0  0  0  0  0  0  0
    2.4044    3.3370    2.0659 H   0  0  0  0  0  0  0  0  0  0  0  0
    5.0679    0.3500    0.4626 H   0  0  0  0  0  0  0  0  0  0  0  0
    3.4312   -1.3873    0.9664 H   0  0  0  0  0  0  0  0  0  0  0  0
    2.9557    3.4856   -0.9678 H   0  0  0  0  0  0  0  0  0  0  0  0
    2.3737    4.7846    0.1490 H   0  0  0  0  0  0  0  0  0  0  0  0
    4.1739    5.0985   -2.3456 H   0  0  0  0  0  0  0  0  0  0  0  0
    2.5081    5.7017   -2.0987 H   0  0  0  0  0  0  0  0  0  0  0  0
    5.6118    7.4676   -0.0812 H   0  0  0  0  0  0  0  0  0  0  0  0
    5.9471    6.1100   -1.1963 H   0  0  0  0  0  0  0  0  0  0  0  0
    6.1531    5.3049    1.1099 H   0  0  0  0  0  0  0  0  0  0  0  0
    4.5622    6.0145    1.5713 H   0  0  0  0  0  0  0  0  0  0  0  0
   -1.9987   -6.0420   -1.2527 H   0  0  0  0  0  0  0  0  0  0  0  0
   -1.2593   -5.0191   -2.5636 H   0  0  0  0  0  0  0  0  0  0  0  0
   -3.3161   -4.2956   -3.3208 H   0  0  0  0  0  0  0  0  0  0  0  0
   -4.0044   -5.7047   -2.4128 H   0  0  0  0  0  0  0  0  0  0  0  0
   -4.7226   -3.0702   -1.8821 H   0  0  0  0  0  0  0  0  0  0  0  0
   -4.6805   -4.3615   -0.6231 H   0  0  0  0  0  0  0  0  0  0  0  0
   -3.1888   -3.0237    0.4634 H   0  0  0  0  0  0  0  0  0  0  0  0
   -2.6475   -0.7147    0.6664 H   0  0  0  0  0  0  0  0  0  0  0  0
   -2.4942    0.7668   -1.9942 H   0  0  0  0  0  0  0  0  0  0  0  0
   -0.7315    1.1627    0.5072 H   0  0  0  0  0  0  0  0  0  0  0  0
   -0.0185    0.3980   -2.4027 H   0  0  0  0  0  0  0  0  0  0  0  0
    0.0341   -0.6978   -0.9721 H   0  0  0  0  0  0  0  0  0  0  0  0
    1.1558    0.6961   -1.0640 H   0  0  0  0  0  0  0  0  0  0  0  0
   -1.3339    3.3863   -0.4112 H   0  0  0  0  0  0  0  0  0  0  0  0
   -0.8997    2.8454   -2.0809 H   0  0  0  0  0  0  0  0  0  0  0  0
    0.3685    3.0045   -0.8032 H   0  0  0  0  0  0  0  0  0  0  0  0
  1  2  1  0
  2  3  1  0
  2  4  1  0
  4  5  1  0
  5  6  1  0
  6  7  2  0
  6  8  1  0
  8  9  2  0
  9 10  1  0
 10 11  2  0
 11 12  1  0
 12 13  2  0
 11 14  1  0
 14 15  2  0
 14 16  1  0
 16 17  1  0
 17 18  1  0
 18 19  1  0
 19 20  1  0
 20 21  1  0
  4 22  1  0
 22 23  2  0
 22 24  1  0
 24 25  1  0
 25 26  1  0
 26 27  1  0
 27 28  1  0
 28 29  1  0
 29 30  2  0
 29 31  1  0
 31 32  1  0
 32 33  1  0
 33 34  1  0
 33 35  1  0
 32 36  1  0
 36 37  2  0
 36 38  1  0
 38 39  1  0
 38 40  1  0
 38 41  1  0
 41 42  1  0
 41 43  1  0
 41 44  1  0
 13  8  1  0
 21 16  1  0
 28 24  1  0
  1 45  1  0
  1 46  1  0
  1 47  1  0
  2 48  1  0
  3 49  1  0
  3 50  1  0
  3 51  1  0
  4 52  1  1
  5 53  1  0
  9 54  1  0
 10 55  1  0
 12 56  1  0
 13 57  1  0
 17 58  1  0
 17 59  1  0
 18 60  1  0
 18 61  1  0
 20 62  1  0
 20 63  1  0
 21 64  1  0
 21 65  1  0
 25 66  1  0
 25 67  1  0
 26 68  1  0
 26 69  1  0
 27 70  1  0
 27 71  1  0
 28 72  1  1
 31 73  1  0
 32 74  1  6
 33 75  1  0
 34 76  1  0
 34 77  1  0
 34 78  1  0
 35 79  1  0
 35 80  1  0
 35 81  1  0
M  END
$$$$
