
     RDKit          3D

 64 66  0  0  0  0  0  0  0  0999 V2000
   -6.6591    1.2119    2.2737 C   0  0  0  0  0  0  0  0  0  0  0  0
   -5.3721    0.9506    2.7891 O   0  0  0  0  0  0  0  0  0  0  0  0
   -4.4331    0.8377    1.7363 C   0  0  0  0  0  0  0  0  0  0  0  0
   -4.2249   -0.6322    1.3673 C   0  0  0  0  0  0  0  0  0  0  0  0
   -3.1857   -0.7580    0.4001 O   0  0  0  0  0  0  0  0  0  0  0  0
   -3.3438   -0.4374   -0.9539 C   0  0  0  0  0  0  0  0  0  0  0  0
   -4.4926   -0.1683   -1.3995 O   0  0  0  0  0  0  0  0  0  0  0  0
   -2.1514   -0.4719   -1.8515 C   0  0  0  0  0  0  0  0  0  0  0  0
   -2.1183    0.1160   -3.0729 C   0  0  0  0  0  0  0  0  0  0  0  0
   -3.2554    0.9456   -3.6120 C   0  0  0  0  0  0  0  0  0  0  0  0
   -0.9680   -0.0629   -3.9124 N   0  0  0  0  0  0  0  0  0  0  0  0
    0.0890   -0.9743   -3.5839 C   0  0  0  0  0  0  0  0  0  0  0  0
    1.1105   -1.2834   -4.6477 C   0  0  0  0  0  0  0  0  0  0  0  0
    0.1409   -1.5162   -2.3469 C   0  0  0  0  0  0  0  0  0  0  0  0
   -0.8978   -1.1401   -1.3024 C   0  0  0  0  0  0  0  0  0  0  0  0
   -0.2561   -0.2574   -0.2461 C   0  0  0  0  0  0  0  0  0  0  0  0
   -0.1621   -0.7012    1.0834 C   0  0  0  0  0  0  0  0  0  0  0  0
    0.4141    0.1115    2.0600 C   0  0  0  0  0  0  0  0  0  0  0  0
    0.9159    1.3693    1.7219 C   0  0  0  0  0  0  0  0  0  0  0  0
    0.8551    1.8273    0.3953 C   0  0  0  0  0  0  0  0  0  0  0  0
    0.2618    1.0076   -0.5828 C   0  0  0  0  0  0  0  0  0  0  0  0
    1.3960    3.1145    0.0457 N   0  0  0  0  0  4  0  0  0  0  0  0
    1.9665    3.9176    1.0066 O   0  0  0  0  0  1  0  0  0  0  0  0
    1.3646    3.5195   -1.1350 O   0  0  0  0  0  0  0  0  0  0  0  0
    1.2630   -2.3792   -1.8986 C   0  0  0  0  0  0  0  0  0  0  0  0
    1.0565   -3.2632   -1.0223 O   0  0  0  0  0  0  0  0  0  0  0  0
    2.5614   -2.1505   -2.3677 O   0  0  0  0  0  0  0  0  0  0  0  0
    3.7242   -2.6765   -1.7324 C   0  0  0  0  0  0  0  0  0  0  0  0
    3.8944   -2.0678   -0.3711 C   0  0  0  0  0  0  0  0  0  0  0  0
    3.9506   -0.7388   -0.2151 C   0  0  0  0  0  0  0  0  0  0  0  0
    4.0720   -0.0570    1.0966 C   0  0  0  0  0  0  0  0  0  0  0  0
    3.7799   -0.6978    2.3190 C   0  0  0  0  0  0  0  0  0  0  0  0
    3.8809    0.0023    3.5254 C   0  0  0  0  0  0  0  0  0  0  0  0
    4.2664    1.3442    3.5286 C   0  0  0  0  0  0  0  0  0  0  0  0
    4.5467    1.9919    2.3243 C   0  0  0  0  0  0  0  0  0  0  0  0
    4.4461    1.2981    1.1150 C   0  0  0  0  0  0  0  0  0  0  0  0
   -7.3849    1.2028    3.1124 H   0  0  0  0  0  0  0  0  0  0  0  0
   -6.9751    0.4322    1.5458 H   0  0  0  0  0  0  0  0  0  0  0  0
   -6.6985    2.2194    1.8040 H   0  0  0  0  0  0  0  0  0  0  0  0
   -3.4646    1.2435    2.0989 H   0  0  0  0  0  0  0  0  0  0  0  0
   -4.7023    1.4338    0.8321 H   0  0  0  0  0  0  0  0  0  0  0  0
   -3.9251   -1.1925    2.2781 H   0  0  0  0  0  0  0  0  0  0  0  0
   -5.1649   -1.0819    0.9815 H   0  0  0  0  0  0  0  0  0  0  0  0
   -3.5719    1.7033   -2.8642 H   0  0  0  0  0  0  0  0  0  0  0  0
   -2.9454    1.4972   -4.5238 H   0  0  0  0  0  0  0  0  0  0  0  0
   -4.1083    0.2896   -3.8847 H   0  0  0  0  0  0  0  0  0  0  0  0
   -0.9350    0.4278   -4.8343 H   0  0  0  0  0  0  0  0  0  0  0  0
    0.7277   -1.0004   -5.6505 H   0  0  0  0  0  0  0  0  0  0  0  0
    1.3329   -2.3712   -4.6762 H   0  0  0  0  0  0  0  0  0  0  0  0
    2.0397   -0.7073   -4.4563 H   0  0  0  0  0  0  0  0  0  0  0  0
   -1.2340   -2.0937   -0.8372 H   0  0  0  0  0  0  0  0  0  0  0  0
   -0.5423   -1.6745    1.3675 H   0  0  0  0  0  0  0  0  0  0  0  0
    0.4774   -0.2367    3.0828 H   0  0  0  0  0  0  0  0  0  0  0  0
    1.3624    1.9782    2.4969 H   0  0  0  0  0  0  0  0  0  0  0  0
    0.2026    1.3491   -1.6081 H   0  0  0  0  0  0  0  0  0  0  0  0
    3.6473   -3.7822   -1.6518 H   0  0  0  0  0  0  0  0  0  0  0  0
    4.6126   -2.4357   -2.3533 H   0  0  0  0  0  0  0  0  0  0  0  0
    3.9667   -2.7384    0.4731 H   0  0  0  0  0  0  0  0  0  0  0  0
    3.9175   -0.1162   -1.1028 H   0  0  0  0  0  0  0  0  0  0  0  0
    3.4443   -1.7241    2.3540 H   0  0  0  0  0  0  0  0  0  0  0  0
    3.6491   -0.4941    4.4588 H   0  0  0  0  0  0  0  0  0  0  0  0
    4.3396    1.8843    4.4636 H   0  0  0  0  0  0  0  0  0  0  0  0
    4.8365    3.0347    2.3265 H   0  0  0  0  0  0  0  0  0  0  0  0
    4.6598    1.8215    0.1909 H   0  0  0  0  0  0  0  0  0  0  0  0
  1  2  1  0
  2  3  1  0
  3  4  1  0
  4  5  1  0
  5  6  1  0
  6  7  2  0
  6  8  1  0
  8  9  2  0
  9 10  1  0
  9 11  1  0
 11 12  1  0
 12 13  1  0
 12 14  2  0
 14 15  1  0
 15 16  1  0
 16 17  2  0
 17 18  1  0
 18 19  2  0
 19 20  1  0
 20 21  2  0
 20 22  1  0
 22 23  1  0
 22 24  2  0
 14 25  1  0
 25 26  2  0
 25 27  1  0
 27 28  1  0
 28 29  1  0
 29 30  2  0
 30 31  1  0
 31 32  2  0
 32 33  1  0
 33 34  2  0
 34 35  1  0
 35 36  2  0
 15  8  1  0
 21 16  1  0
 36 31  1  0
  1 37  1  0
  1 38  1  0
  1 39  1  0
  3 40  1  0
  3 41  1  0
  4 42  1  0
  4 43  1  0
 10 44  1  0
 10 45  1  0
 10 46  1  0
 11 47  1  0
 13 48  1  0
 13 49  1  0
 13 50  1  0
 15 51  1  0
 17 52  1  0
 18 53  1  0
 19 54  1  0
 21 55  1  0
 28 56  1  0
 28 57  1  0
 29 58  1  0
 30 59  1  0
 32 60  1  0
 33 61  1  0
 34 62  1  0
 35 63  1  0
 36 64  1  0
M  CHG  2  22   1  23  -1
M  END
$$$$
