
     RDKit          3D

 50 52  0  0  0  0  0  0  0  0999 V2000
    7.3606   -1.1529   -0.2116 C   0  0  0  0  0  0  0  0  0  0  0  0
    6.8039   -0.2714    0.9014 C   0  0  0  0  0  0  0  0  0  0  0  0
    5.3494   -0.3945    0.9895 N   0  0  0  0  0  0  0  0  0  0  0  0
    4.5951    0.3497    1.9558 C   0  0  0  0  0  0  0  0  0  0  0  0
    5.1929    0.9778    2.8715 O   0  0  0  0  0  0  0  0  0  0  0  0
    3.1203    0.3475    1.9302 C   0  0  0  0  0  0  0  0  0  0  0  0
    2.3161    0.4435    3.0545 C   0  0  0  0  0  0  0  0  0  0  0  0
    1.0350    0.4082    2.6647 N   0  0  0  0  0  0  0  0  0  0  0  0
   -0.0360    0.5202    3.4449 N   0  0  0  0  0  0  0  0  0  0  0  0
   -1.2682    0.5035    2.8728 C   0  0  0  0  0  0  0  0  0  0  0  0
   -1.3850    0.3541    1.5233 N   0  0  0  0  0  0  0  0  0  0  0  0
   -0.2928    0.2259    0.7138 C   0  0  0  0  0  0  0  0  0  0  0  0
   -0.4681   -0.0162   -0.6939 N   0  0  0  0  0  0  0  0  0  0  0  0
   -1.7267    0.1549   -1.3651 C   0  0  0  0  0  0  0  0  0  0  0  0
   -2.8656   -0.5334   -0.9140 C   0  0  0  0  0  0  0  0  0  0  0  0
   -4.0979   -0.4009   -1.5767 C   0  0  0  0  0  0  0  0  0  0  0  0
   -4.1668    0.3999   -2.7278 C   0  0  0  0  0  0  0  0  0  0  0  0
   -3.0351    1.0698   -3.1961 C   0  0  0  0  0  0  0  0  0  0  0  0
   -1.8109    0.9597   -2.5201 C   0  0  0  0  0  0  0  0  0  0  0  0
   -0.6014    1.6867   -3.0413 C   0  0  0  0  0  0  0  0  0  0  0  0
   -5.3066   -1.1150   -1.0990 C   0  0  0  0  0  0  0  0  0  0  0  0
   -6.2296   -1.3866   -1.9144 O   0  0  0  0  0  0  0  0  0  0  0  0
   -5.4599   -1.4859    0.2785 N   0  0  0  0  0  0  0  0  0  0  0  0
   -6.5155   -2.2450    0.6765 O   0  0  0  0  0  0  0  0  0  0  0  0
   -7.4919   -1.3545    1.1556 C   0  0  0  0  0  0  0  0  0  0  0  0
    0.9737    0.2879    1.3277 C   0  0  0  0  0  0  0  0  0  0  0  0
    2.2738    0.2840    0.8137 C   0  0  0  0  0  0  0  0  0  0  0  0
    2.6988    0.4002   -0.6216 C   0  0  0  0  0  0  0  0  0  0  0  0
    6.9237   -0.8554   -1.1886 H   0  0  0  0  0  0  0  0  0  0  0  0
    8.4638   -1.0380   -0.2625 H   0  0  0  0  0  0  0  0  0  0  0  0
    7.1203   -2.2187   -0.0112 H   0  0  0  0  0  0  0  0  0  0  0  0
    7.0724    0.7869    0.6937 H   0  0  0  0  0  0  0  0  0  0  0  0
    7.2612   -0.5741    1.8681 H   0  0  0  0  0  0  0  0  0  0  0  0
    4.8474   -1.0633    0.3622 H   0  0  0  0  0  0  0  0  0  0  0  0
    2.6461    0.5359    4.0817 H   0  0  0  0  0  0  0  0  0  0  0  0
   -2.1531    0.5983    3.4867 H   0  0  0  0  0  0  0  0  0  0  0  0
    0.3303   -0.3370   -1.2775 H   0  0  0  0  0  0  0  0  0  0  0  0
   -2.7697   -1.2065   -0.0732 H   0  0  0  0  0  0  0  0  0  0  0  0
   -5.1004    0.5133   -3.2652 H   0  0  0  0  0  0  0  0  0  0  0  0
   -3.1177    1.6788   -4.0879 H   0  0  0  0  0  0  0  0  0  0  0  0
    0.1207    0.9555   -3.4612 H   0  0  0  0  0  0  0  0  0  0  0  0
   -0.1142    2.2509   -2.2181 H   0  0  0  0  0  0  0  0  0  0  0  0
   -0.8731    2.4118   -3.8377 H   0  0  0  0  0  0  0  0  0  0  0  0
   -4.7477   -1.2073    0.9898 H   0  0  0  0  0  0  0  0  0  0  0  0
   -7.8318   -0.6655    0.3510 H   0  0  0  0  0  0  0  0  0  0  0  0
   -8.3699   -1.9387    1.4996 H   0  0  0  0  0  0  0  0  0  0  0  0
   -7.1056   -0.7723    2.0217 H   0  0  0  0  0  0  0  0  0  0  0  0
    2.0466    1.1221   -1.1545 H   0  0  0  0  0  0  0  0  0  0  0  0
    2.6596   -0.5952   -1.1102 H   0  0  0  0  0  0  0  0  0  0  0  0
    3.7298    0.8001   -0.6993 H   0  0  0  0  0  0  0  0  0  0  0  0
  1  2  1  0
  2  3  1  0
  3  4  1  0
  4  5  2  0
  4  6  1  0
  6  7  2  0
  7  8  1  0
  8  9  1  0
  9 10  2  0
 10 11  1  0
 11 12  2  0
 12 13  1  0
 13 14  1  0
 14 15  2  0
 15 16  1  0
 16 17  2  0
 17 18  1  0
 18 19  2  0
 19 20  1  0
 16 21  1  0
 21 22  2  0
 21 23  1  0
 23 24  1  0
 24 25  1  0
 12 26  1  0
 26 27  2  0
 27 28  1  0
 27  6  1  0
 26  8  1  0
 19 14  1  0
  1 29  1  0
  1 30  1  0
  1 31  1  0
  2 32  1  0
  2 33  1  0
  3 34  1  0
  7 35  1  0
 10 36  1  0
 13 37  1  0
 15 38  1  0
 17 39  1  0
 18 40  1  0
 20 41  1  0
 20 42  1  0
 20 43  1  0
 23 44  1  0
 25 45  1  0
 25 46  1  0
 25 47  1  0
 28 48  1  0
 28 49  1  0
 28 50  1  0
M  END
$$$$
