
     RDKit          3D

 35 36  0  0  0  0  0  0  0  0999 V2000
    6.7613   -0.0615    0.5276 C   0  0  0  0  0  0  0  0  0  0  0  0
    5.2839    0.0742    0.7715 C   0  0  0  0  0  0  0  0  0  0  0  0
    4.8911    0.9695    1.7721 O   0  0  0  0  0  0  0  0  0  0  0  0
    4.3812   -0.6165    0.0333 C   0  0  0  0  0  0  0  0  0  0  0  0
    4.8175   -1.4437   -1.0705 C   0  0  0  0  0  0  0  0  0  0  0  0
    5.1660   -2.1056   -1.9537 N   0  0  0  0  0  0  0  0  0  0  0  0
    2.9316   -0.5947    0.3310 C   0  0  0  0  0  0  0  0  0  0  0  0
    2.5411   -0.6945    1.5263 O   0  0  0  0  0  0  0  0  0  0  0  0
    1.9720   -0.5518   -0.7398 N   0  0  0  0  0  0  0  0  0  0  0  0
    0.5623   -0.3433   -0.5466 C   0  0  0  0  0  0  0  0  0  0  0  0
    0.0776    0.5079    0.4610 C   0  0  0  0  0  0  0  0  0  0  0  0
   -1.2967    0.7128    0.6135 C   0  0  0  0  0  0  0  0  0  0  0  0
   -2.2133    0.0830   -0.2470 C   0  0  0  0  0  0  0  0  0  0  0  0
   -1.7230   -0.7493   -1.2689 C   0  0  0  0  0  0  0  0  0  0  0  0
   -0.3486   -0.9530   -1.4200 C   0  0  0  0  0  0  0  0  0  0  0  0
   -3.6737    0.3009   -0.0845 C   0  0  0  0  0  0  0  0  0  0  0  0
   -4.5036    0.4637   -1.2103 C   0  0  0  0  0  0  0  0  0  0  0  0
   -5.8778    0.6691   -1.0536 C   0  0  0  0  0  0  0  0  0  0  0  0
   -6.4387    0.7135    0.2246 C   0  0  0  0  0  0  0  0  0  0  0  0
   -5.6264    0.5532    1.3493 C   0  0  0  0  0  0  0  0  0  0  0  0
   -4.2515    0.3485    1.1986 C   0  0  0  0  0  0  0  0  0  0  0  0
    7.0142    0.3065   -0.4893 H   0  0  0  0  0  0  0  0  0  0  0  0
    7.0703   -1.1237    0.6276 H   0  0  0  0  0  0  0  0  0  0  0  0
    7.3290    0.5383    1.2698 H   0  0  0  0  0  0  0  0  0  0  0  0
    3.9334    1.2578    1.9246 H   0  0  0  0  0  0  0  0  0  0  0  0
    2.3034   -0.7433   -1.7122 H   0  0  0  0  0  0  0  0  0  0  0  0
    0.7588    1.0386    1.1127 H   0  0  0  0  0  0  0  0  0  0  0  0
   -1.6413    1.3855    1.3889 H   0  0  0  0  0  0  0  0  0  0  0  0
   -2.4029   -1.2565   -1.9419 H   0  0  0  0  0  0  0  0  0  0  0  0
    0.0078   -1.5997   -2.2120 H   0  0  0  0  0  0  0  0  0  0  0  0
   -4.0880    0.4503   -2.2100 H   0  0  0  0  0  0  0  0  0  0  0  0
   -6.5078    0.7974   -1.9243 H   0  0  0  0  0  0  0  0  0  0  0  0
   -7.5027    0.8723    0.3436 H   0  0  0  0  0  0  0  0  0  0  0  0
   -6.0629    0.5843    2.3393 H   0  0  0  0  0  0  0  0  0  0  0  0
   -3.6435    0.2100    2.0838 H   0  0  0  0  0  0  0  0  0  0  0  0
  1  2  1  0
  2  3  1  0
  2  4  2  0
  4  5  1  0
  5  6  3  0
  4  7  1  0
  7  8  2  0
  7  9  1  0
  9 10  1  0
 10 11  2  0
 11 12  1  0
 12 13  2  0
 13 14  1  0
 14 15  2  0
 13 16  1  0
 16 17  2  0
 17 18  1  0
 18 19  2  0
 19 20  1  0
 20 21  2  0
 15 10  1  0
 21 16  1  0
  1 22  1  0
  1 23  1  0
  1 24  1  0
  3 25  1  0
  9 26  1  0
 11 27  1  0
 12 28  1  0
 14 29  1  0
 15 30  1  0
 17 31  1  0
 18 32  1  0
 19 33  1  0
 20 34  1  0
 21 35  1  0
M  END
$$$$
