
     RDKit          3D

 30 31  0  0  0  0  0  0  0  0999 V2000
    5.3068    0.1125   -0.4654 N   0  0  0  0  0  0  0  0  0  0  0  0
    4.3094    0.2367    0.5536 C   0  0  0  0  0  0  0  0  0  0  0  0
    4.6536    0.5344    1.7663 N   0  0  0  0  0  0  0  0  0  0  0  0
    2.8887    0.0278    0.2343 C   0  0  0  0  0  0  0  0  0  0  0  0
    1.8974    0.1325    1.1423 N   0  0  0  0  0  0  0  0  0  0  0  0
    0.7854   -0.1259    0.4796 N   0  0  0  0  0  0  0  0  0  0  0  0
    1.1039   -0.3646   -0.8049 C   0  0  0  0  0  0  0  0  0  0  0  0
    2.4339   -0.2808   -1.0013 N   0  0  0  0  0  0  0  0  0  0  0  0
   -0.5541   -0.0697    1.0646 C   0  0  2  0  0  0  0  0  0  0  0  0
   -1.3068   -1.1852    0.6309 O   0  0  0  0  0  0  0  0  0  0  0  0
   -2.5365   -0.7037    0.1387 C   0  0  2  0  0  0  0  0  0  0  0  0
   -3.0443   -1.6080   -0.9924 C   0  0  0  0  0  0  0  0  0  0  0  0
   -2.0683   -1.7650   -1.9890 O   0  0  0  0  0  0  0  0  0  0  0  0
   -2.3428    0.7448   -0.2976 C   0  0  1  0  0  0  0  0  0  0  0  0
   -3.5259    1.4909   -0.1683 O   0  0  0  0  0  0  0  0  0  0  0  0
   -1.2693    1.2262    0.6526 C   0  0  1  0  0  0  0  0  0  0  0  0
   -1.8054    1.8936    1.7728 O   0  0  0  0  0  0  0  0  0  0  0  0
    6.3167    0.2597   -0.2442 H   0  0  0  0  0  0  0  0  0  0  0  0
    5.0451   -0.1271   -1.4473 H   0  0  0  0  0  0  0  0  0  0  0  0
    5.6517    0.6901    2.0317 H   0  0  0  0  0  0  0  0  0  0  0  0
    0.3887   -0.5835   -1.5862 H   0  0  0  0  0  0  0  0  0  0  0  0
   -0.4595   -0.1230    2.1724 H   0  0  0  0  0  0  0  0  0  0  0  0
   -3.2804   -0.7415    0.9673 H   0  0  0  0  0  0  0  0  0  0  0  0
   -3.2724   -2.6095   -0.5698 H   0  0  0  0  0  0  0  0  0  0  0  0
   -3.9953   -1.2057   -1.4129 H   0  0  0  0  0  0  0  0  0  0  0  0
   -2.2825   -1.1192   -2.7116 H   0  0  0  0  0  0  0  0  0  0  0  0
   -1.9505    0.8086   -1.3395 H   0  0  0  0  0  0  0  0  0  0  0  0
   -4.0910    1.2607   -0.9509 H   0  0  0  0  0  0  0  0  0  0  0  0
   -0.5823    1.9270    0.1278 H   0  0  0  0  0  0  0  0  0  0  0  0
   -2.4136    1.2668    2.2463 H   0  0  0  0  0  0  0  0  0  0  0  0
  1  2  1  0
  2  3  2  3
  2  4  1  0
  4  5  2  0
  5  6  1  0
  6  7  1  0
  7  8  2  0
  6  9  1  0
  9 10  1  0
 10 11  1  0
 11 12  1  0
 12 13  1  0
 11 14  1  0
 14 15  1  0
 14 16  1  0
 16 17  1  0
  8  4  1  0
 16  9  1  0
  1 18  1  0
  1 19  1  0
  3 20  1  0
  7 21  1  0
  9 22  1  1
 11 23  1  1
 12 24  1  0
 12 25  1  0
 13 26  1  0
 14 27  1  6
 15 28  1  0
 16 29  1  6
 17 30  1  0
M  END
$$$$
