
     RDKit          3D

 67 70  0  0  0  0  0  0  0  0999 V2000
   -2.3247    6.1373   -0.7320 C   0  0  0  0  0  0  0  0  0  0  0  0
   -1.6038    5.2348   -1.7330 C   0  0  0  0  0  0  0  0  0  0  0  0
   -1.9786    3.7529   -1.5754 C   0  0  0  0  0  0  0  0  0  0  0  0
   -1.4171    3.1339   -0.2822 C   0  0  0  0  0  0  0  0  0  0  0  0
   -1.6616    1.6391   -0.1729 C   0  0  0  0  0  0  0  0  0  0  0  0
   -2.4875    1.0524   -1.0783 N   0  0  0  0  0  0  0  0  0  0  0  0
   -2.7834   -0.2679   -1.0551 C   0  0  0  0  0  0  0  0  0  0  0  0
   -3.7070   -0.8063   -2.1089 C   0  0  0  0  0  0  0  0  0  0  0  0
   -2.2226   -1.0819   -0.0552 C   0  0  0  0  0  0  0  0  0  0  0  0
   -2.5350   -2.5664    0.0280 C   0  0  0  0  0  0  0  0  0  0  0  0
   -3.8811   -2.8080    0.6723 C   0  0  0  0  0  0  0  0  0  0  0  0
   -4.0906   -2.3311    2.2336 S   0  0  0  0  0  0  0  0  0  0  0  0
   -4.9408   -3.5126   -0.0185 N   0  0  0  0  0  0  0  0  0  0  0  0
   -4.6344   -4.4516   -1.1028 C   0  0  0  0  0  0  0  0  0  0  0  0
   -6.3388   -3.2966    0.3713 C   0  0  0  0  0  0  0  0  0  0  0  0
   -1.3877   -0.4683    0.8995 C   0  0  0  0  0  0  0  0  0  0  0  0
   -0.8901   -1.1704    1.8250 O   0  0  0  0  0  0  0  0  0  0  0  0
   -1.1108    0.8780    0.8366 N   0  0  0  0  0  0  0  0  0  0  0  0
   -0.2077    1.4601    1.8566 C   0  0  0  0  0  0  0  0  0  0  0  0
    1.2172    1.0110    1.6358 C   0  0  0  0  0  0  0  0  0  0  0  0
    1.9555    0.4560    2.6937 C   0  0  0  0  0  0  0  0  0  0  0  0
    3.2692    0.0251    2.4899 C   0  0  0  0  0  0  0  0  0  0  0  0
    3.8644    0.1399    1.2243 C   0  0  0  0  0  0  0  0  0  0  0  0
    3.1389    0.7252    0.1747 C   0  0  0  0  0  0  0  0  0  0  0  0
    1.8261    1.1564    0.3784 C   0  0  0  0  0  0  0  0  0  0  0  0
    5.2488   -0.3381    1.0038 C   0  0  0  0  0  0  0  0  0  0  0  0
    5.5789   -1.2602   -0.0257 C   0  0  0  0  0  0  0  0  0  0  0  0
    6.9300   -1.5751   -0.2548 C   0  0  0  0  0  0  0  0  0  0  0  0
    7.9351   -1.0244    0.5420 C   0  0  0  0  0  0  0  0  0  0  0  0
    7.6073   -0.1484    1.5752 C   0  0  0  0  0  0  0  0  0  0  0  0
    6.2744    0.1954    1.8042 C   0  0  0  0  0  0  0  0  0  0  0  0
    4.5523   -1.9346   -0.8546 C   0  0  0  0  0  0  0  0  0  0  0  0
    4.7219   -2.2682   -2.1483 N   0  0  0  0  0  0  0  0  0  0  0  0
    3.6019   -2.8879   -2.4936 N   0  0  0  0  0  0  0  0  0  0  0  0
    2.7801   -2.9475   -1.4567 N   0  0  0  0  0  0  0  0  0  0  0  0
    3.3535   -2.3623   -0.4214 N   0  0  0  0  0  0  0  0  0  0  0  0
   -2.1107    7.1998   -0.9733 H   0  0  0  0  0  0  0  0  0  0  0  0
   -1.9703    5.9408    0.3010 H   0  0  0  0  0  0  0  0  0  0  0  0
   -3.4226    5.9776   -0.7844 H   0  0  0  0  0  0  0  0  0  0  0  0
   -1.8836    5.5598   -2.7585 H   0  0  0  0  0  0  0  0  0  0  0  0
   -0.5048    5.3654   -1.6281 H   0  0  0  0  0  0  0  0  0  0  0  0
   -3.0853    3.6436   -1.6004 H   0  0  0  0  0  0  0  0  0  0  0  0
   -1.5610    3.2021   -2.4469 H   0  0  0  0  0  0  0  0  0  0  0  0
   -1.8945    3.6238    0.5921 H   0  0  0  0  0  0  0  0  0  0  0  0
   -0.3247    3.3296   -0.2556 H   0  0  0  0  0  0  0  0  0  0  0  0
   -4.0404    0.0086   -2.7862 H   0  0  0  0  0  0  0  0  0  0  0  0
   -4.6077   -1.2492   -1.6375 H   0  0  0  0  0  0  0  0  0  0  0  0
   -3.1851   -1.5699   -2.7220 H   0  0  0  0  0  0  0  0  0  0  0  0
   -1.7615   -3.1082    0.6126 H   0  0  0  0  0  0  0  0  0  0  0  0
   -2.4762   -3.0019   -0.9872 H   0  0  0  0  0  0  0  0  0  0  0  0
   -5.5071   -5.0954   -1.3414 H   0  0  0  0  0  0  0  0  0  0  0  0
   -4.3555   -3.8931   -2.0201 H   0  0  0  0  0  0  0  0  0  0  0  0
   -3.8002   -5.1198   -0.8006 H   0  0  0  0  0  0  0  0  0  0  0  0
   -7.0417   -3.7811   -0.3389 H   0  0  0  0  0  0  0  0  0  0  0  0
   -6.5184   -3.7171    1.3829 H   0  0  0  0  0  0  0  0  0  0  0  0
   -6.5618   -2.2085    0.3782 H   0  0  0  0  0  0  0  0  0  0  0  0
   -0.5612    1.1553    2.8668 H   0  0  0  0  0  0  0  0  0  0  0  0
   -0.2318    2.5662    1.8797 H   0  0  0  0  0  0  0  0  0  0  0  0
    1.5121    0.3456    3.6754 H   0  0  0  0  0  0  0  0  0  0  0  0
    3.8161   -0.4160    3.3142 H   0  0  0  0  0  0  0  0  0  0  0  0
    3.5887    0.8423   -0.8036 H   0  0  0  0  0  0  0  0  0  0  0  0
    1.2835    1.5890   -0.4509 H   0  0  0  0  0  0  0  0  0  0  0  0
    7.2074   -2.2709   -1.0374 H   0  0  0  0  0  0  0  0  0  0  0  0
    8.9704   -1.2841    0.3623 H   0  0  0  0  0  0  0  0  0  0  0  0
    8.3888    0.2756    2.1925 H   0  0  0  0  0  0  0  0  0  0  0  0
    6.0435    0.9023    2.5921 H   0  0  0  0  0  0  0  0  0  0  0  0
    2.9436   -2.3018    0.5363 H   0  0  0  0  0  0  0  0  0  0  0  0
  1  2  1  0
  2  3  1  0
  3  4  1  0
  4  5  1  0
  5  6  2  0
  6  7  1  0
  7  8  1  0
  7  9  2  0
  9 10  1  0
 10 11  1  0
 11 12  2  0
 11 13  1  0
 13 14  1  0
 13 15  1  0
  9 16  1  0
 16 17  2  0
 16 18  1  0
 18 19  1  0
 19 20  1  0
 20 21  2  0
 21 22  1  0
 22 23  2  0
 23 24  1  0
 24 25  2  0
 23 26  1  0
 26 27  1  0
 27 28  2  0
 28 29  1  0
 29 30  2  0
 30 31  1  0
 27 32  1  0
 32 33  2  0
 33 34  1  0
 34 35  2  0
 35 36  1  0
 18  5  1  0
 25 20  1  0
 31 26  2  0
 36 32  1  0
  1 37  1  0
  1 38  1  0
  1 39  1  0
  2 40  1  0
  2 41  1  0
  3 42  1  0
  3 43  1  0
  4 44  1  0
  4 45  1  0
  8 46  1  0
  8 47  1  0
  8 48  1  0
 10 49  1  0
 10 50  1  0
 14 51  1  0
 14 52  1  0
 14 53  1  0
 15 54  1  0
 15 55  1  0
 15 56  1  0
 19 57  1  0
 19 58  1  0
 21 59  1  0
 22 60  1  0
 24 61  1  0
 25 62  1  0
 28 63  1  0
 29 64  1  0
 30 65  1  0
 31 66  1  0
 36 67  1  0
M  END
$$$$
