
     RDKit          3D

 51 52  0  0  0  0  0  0  0  0999 V2000
    6.8887   -0.3632    2.0664 C   0  0  0  0  0  0  0  0  0  0  0  0
    5.9459    0.6876    1.4701 C   0  0  0  0  0  0  0  0  0  0  0  0
    6.1885    2.0436    2.1487 C   0  0  0  0  0  0  0  0  0  0  0  0
    4.5447    0.2550    1.6538 N   0  0  0  0  0  0  0  0  0  0  0  0
    4.0472   -0.5643    0.5336 C   0  0  0  0  0  0  0  0  0  0  0  0
    3.5401    0.2923   -0.6492 C   0  0  2  0  0  0  0  0  0  0  0  0
    2.3738    0.9814   -0.2756 O   0  0  0  0  0  0  0  0  0  0  0  0
    3.2479   -0.5863   -1.8769 C   0  0  0  0  0  0  0  0  0  0  0  0
    2.3092   -1.6222   -1.5759 O   0  0  0  0  0  0  0  0  0  0  0  0
    0.9123   -1.4841   -1.5204 C   0  0  0  0  0  0  0  0  0  0  0  0
    0.1669   -2.5567   -1.0166 C   0  0  0  0  0  0  0  0  0  0  0  0
   -1.2263   -2.4814   -0.9363 C   0  0  0  0  0  0  0  0  0  0  0  0
   -1.8987   -1.3313   -1.3751 C   0  0  0  0  0  0  0  0  0  0  0  0
   -3.3960   -1.2333   -1.2556 C   0  0  0  0  0  0  0  0  0  0  0  0
   -3.7929   -0.6311    0.0948 C   0  0  0  0  0  0  0  0  0  0  0  0
   -5.2026   -0.6009    0.2183 O   0  0  0  0  0  0  0  0  0  0  0  0
   -5.7049    0.6733   -0.1251 C   0  0  0  0  0  0  0  0  0  0  0  0
   -7.2325    0.6005   -0.1736 C   0  0  0  0  0  0  0  0  0  0  0  0
   -7.9545    1.9174    0.0664 C   0  0  0  0  0  0  0  0  0  0  0  0
   -7.9419    0.8479    1.1488 C   0  0  0  0  0  0  0  0  0  0  0  0
   -1.1567   -0.2511   -1.8757 C   0  0  0  0  0  0  0  0  0  0  0  0
    0.2371   -0.3268   -1.9559 C   0  0  0  0  0  0  0  0  0  0  0  0
    6.7601   -1.3379    1.5517 H   0  0  0  0  0  0  0  0  0  0  0  0
    7.9466   -0.0474    1.9419 H   0  0  0  0  0  0  0  0  0  0  0  0
    6.6786   -0.5032    3.1486 H   0  0  0  0  0  0  0  0  0  0  0  0
    6.1945    0.8080    0.3920 H   0  0  0  0  0  0  0  0  0  0  0  0
    5.5503    2.8224    1.6793 H   0  0  0  0  0  0  0  0  0  0  0  0
    7.2493    2.3516    2.0296 H   0  0  0  0  0  0  0  0  0  0  0  0
    5.9475    1.9861    3.2320 H   0  0  0  0  0  0  0  0  0  0  0  0
    3.9071    1.0724    1.7976 H   0  0  0  0  0  0  0  0  0  0  0  0
    3.2097   -1.1909    0.9094 H   0  0  0  0  0  0  0  0  0  0  0  0
    4.8356   -1.2676    0.1853 H   0  0  0  0  0  0  0  0  0  0  0  0
    4.3364    1.0116   -0.9531 H   0  0  0  0  0  0  0  0  0  0  0  0
    2.6362    1.9125   -0.0524 H   0  0  0  0  0  0  0  0  0  0  0  0
    4.1966   -1.0673   -2.1978 H   0  0  0  0  0  0  0  0  0  0  0  0
    2.9084    0.0281   -2.7364 H   0  0  0  0  0  0  0  0  0  0  0  0
    0.6725   -3.4521   -0.6776 H   0  0  0  0  0  0  0  0  0  0  0  0
   -1.7804   -3.3189   -0.5307 H   0  0  0  0  0  0  0  0  0  0  0  0
   -3.7979   -0.6063   -2.0805 H   0  0  0  0  0  0  0  0  0  0  0  0
   -3.8526   -2.2422   -1.3583 H   0  0  0  0  0  0  0  0  0  0  0  0
   -3.3975   -1.2835    0.9027 H   0  0  0  0  0  0  0  0  0  0  0  0
   -3.3108    0.3671    0.2323 H   0  0  0  0  0  0  0  0  0  0  0  0
   -5.3552    0.9818   -1.1359 H   0  0  0  0  0  0  0  0  0  0  0  0
   -5.3633    1.4304    0.6184 H   0  0  0  0  0  0  0  0  0  0  0  0
   -7.7384   -0.1023   -0.8697 H   0  0  0  0  0  0  0  0  0  0  0  0
   -7.3142    2.7967    0.2934 H   0  0  0  0  0  0  0  0  0  0  0  0
   -8.9279    2.0115   -0.4599 H   0  0  0  0  0  0  0  0  0  0  0  0
   -7.2927    1.0909    2.0172 H   0  0  0  0  0  0  0  0  0  0  0  0
   -8.9068    0.3098    1.2605 H   0  0  0  0  0  0  0  0  0  0  0  0
   -1.6584    0.6510   -2.2039 H   0  0  0  0  0  0  0  0  0  0  0  0
    0.7714    0.5215   -2.3569 H   0  0  0  0  0  0  0  0  0  0  0  0
  1  2  1  0
  2  3  1  0
  2  4  1  0
  4  5  1  0
  5  6  1  0
  6  7  1  0
  6  8  1  0
  8  9  1  0
  9 10  1  0
 10 11  2  0
 11 12  1  0
 12 13  2  0
 13 14  1  0
 14 15  1  0
 15 16  1  0
 16 17  1  0
 17 18  1  0
 18 19  1  0
 19 20  1  0
 13 21  1  0
 21 22  2  0
 22 10  1  0
 20 18  1  0
  1 23  1  0
  1 24  1  0
  1 25  1  0
  2 26  1  0
  3 27  1  0
  3 28  1  0
  3 29  1  0
  4 30  1  0
  5 31  1  0
  5 32  1  0
  6 33  1  6
  7 34  1  0
  8 35  1  0
  8 36  1  0
 11 37  1  0
 12 38  1  0
 14 39  1  0
 14 40  1  0
 15 41  1  0
 15 42  1  0
 17 43  1  0
 17 44  1  0
 18 45  1  0
 19 46  1  0
 19 47  1  0
 20 48  1  0
 20 49  1  0
 21 50  1  0
 22 51  1  0
M  END
$$$$
