
     RDKit          3D

 68 71  0  0  0  0  0  0  0  0999 V2000
   -5.9895   -0.2567    3.4195 C   0  0  0  0  0  0  0  0  0  0  0  0
   -5.0511    0.2174    2.4621 O   0  0  0  0  0  0  0  0  0  0  0  0
   -4.9215    1.5709    2.1330 C   0  0  0  0  0  0  0  0  0  0  0  0
   -5.6347    2.4282    2.7229 O   0  0  0  0  0  0  0  0  0  0  0  0
   -3.9019    1.9800    1.1263 C   0  0  0  0  0  0  0  0  0  0  0  0
   -3.9769    3.1324    0.4174 C   0  0  0  0  0  0  0  0  0  0  0  0
   -5.1477    4.0759    0.5178 C   0  0  0  0  0  0  0  0  0  0  0  0
   -2.8977    3.4915   -0.4592 N   0  0  0  0  0  0  0  0  0  0  0  0
   -1.6473    2.7859   -0.4628 C   0  0  0  0  0  0  0  0  0  0  0  0
   -0.5027    3.3815   -1.2417 C   0  0  0  0  0  0  0  0  0  0  0  0
   -1.5342    1.6323    0.2363 C   0  0  0  0  0  0  0  0  0  0  0  0
   -2.7785    0.9962    0.8372 C   0  0  2  0  0  0  0  0  0  0  0  0
   -3.2790   -0.1244   -0.0576 C   0  0  0  0  0  0  0  0  0  0  0  0
   -3.7315    0.1411   -1.3624 C   0  0  0  0  0  0  0  0  0  0  0  0
   -4.1899   -0.8958   -2.1757 C   0  0  0  0  0  0  0  0  0  0  0  0
   -4.2043   -2.2083   -1.7008 C   0  0  0  0  0  0  0  0  0  0  0  0
   -3.7574   -2.5001   -0.4000 C   0  0  0  0  0  0  0  0  0  0  0  0
   -3.2953   -1.4501    0.4137 C   0  0  0  0  0  0  0  0  0  0  0  0
   -3.7718   -3.8519    0.0947 N   0  0  0  0  0  4  0  0  0  0  0  0
   -3.3391   -4.1352    1.3701 O   0  0  0  0  0  1  0  0  0  0  0  0
   -4.1780   -4.7888   -0.6239 O   0  0  0  0  0  0  0  0  0  0  0  0
   -0.2471    0.8982    0.3769 C   0  0  0  0  0  0  0  0  0  0  0  0
   -0.2603   -0.3456    0.5889 O   0  0  0  0  0  0  0  0  0  0  0  0
    0.9731    1.5829    0.3307 O   0  0  0  0  0  0  0  0  0  0  0  0
    2.2453    0.9359    0.3588 C   0  0  2  0  0  0  0  0  0  0  0  0
    3.3343    1.9764    0.6845 C   0  0  0  0  0  0  0  0  0  0  0  0
    4.7053    1.6072    0.0916 C   0  0  0  0  0  0  0  0  0  0  0  0
    4.8453    0.0899   -0.0709 C   0  0  0  0  0  0  0  0  0  0  0  0
    3.8312   -0.4675   -1.0056 N   0  0  0  0  0  0  0  0  0  0  0  0
    3.6330   -1.9157   -0.7800 C   0  0  0  0  0  0  0  0  0  0  0  0
    4.8907   -2.6879   -1.0876 C   0  0  0  0  0  0  0  0  0  0  0  0
    5.6512   -3.2577   -0.0526 C   0  0  0  0  0  0  0  0  0  0  0  0
    6.8298   -3.9511   -0.3453 C   0  0  0  0  0  0  0  0  0  0  0  0
    7.2586   -4.0765   -1.6696 C   0  0  0  0  0  0  0  0  0  0  0  0
    6.5106   -3.5067   -2.7036 C   0  0  0  0  0  0  0  0  0  0  0  0
    5.3317   -2.8122   -2.4153 C   0  0  0  0  0  0  0  0  0  0  0  0
    2.5359    0.2643   -0.9970 C   0  0  0  0  0  0  0  0  0  0  0  0
   -5.7800    0.1940    4.4126 H   0  0  0  0  0  0  0  0  0  0  0  0
   -5.9018   -1.3597    3.4991 H   0  0  0  0  0  0  0  0  0  0  0  0
   -7.0214    0.0004    3.0996 H   0  0  0  0  0  0  0  0  0  0  0  0
   -5.1098    4.6252    1.4816 H   0  0  0  0  0  0  0  0  0  0  0  0
   -6.1047    3.5196    0.4286 H   0  0  0  0  0  0  0  0  0  0  0  0
   -5.1244    4.8223   -0.3032 H   0  0  0  0  0  0  0  0  0  0  0  0
   -2.9889    4.3539   -1.0420 H   0  0  0  0  0  0  0  0  0  0  0  0
   -0.8700    4.1492   -1.9540 H   0  0  0  0  0  0  0  0  0  0  0  0
    0.0128    2.6003   -1.8398 H   0  0  0  0  0  0  0  0  0  0  0  0
    0.2132    3.8702   -0.5483 H   0  0  0  0  0  0  0  0  0  0  0  0
   -2.4695    0.5767    1.8214 H   0  0  0  0  0  0  0  0  0  0  0  0
   -3.7303    1.1501   -1.7522 H   0  0  0  0  0  0  0  0  0  0  0  0
   -4.5361   -0.6813   -3.1786 H   0  0  0  0  0  0  0  0  0  0  0  0
   -4.5654   -2.9949   -2.3508 H   0  0  0  0  0  0  0  0  0  0  0  0
   -2.9484   -1.6621    1.4170 H   0  0  0  0  0  0  0  0  0  0  0  0
    2.2474    0.1592    1.1567 H   0  0  0  0  0  0  0  0  0  0  0  0
    3.4204    2.0689    1.7893 H   0  0  0  0  0  0  0  0  0  0  0  0
    3.0378    2.9737    0.2908 H   0  0  0  0  0  0  0  0  0  0  0  0
    4.8231    2.0869   -0.9050 H   0  0  0  0  0  0  0  0  0  0  0  0
    5.5140    1.9910    0.7505 H   0  0  0  0  0  0  0  0  0  0  0  0
    5.8602   -0.1267   -0.4682 H   0  0  0  0  0  0  0  0  0  0  0  0
    4.7685   -0.3797    0.9367 H   0  0  0  0  0  0  0  0  0  0  0  0
    2.8404   -2.3052   -1.4569 H   0  0  0  0  0  0  0  0  0  0  0  0
    3.2879   -2.1058    0.2617 H   0  0  0  0  0  0  0  0  0  0  0  0
    5.3351   -3.1620    0.9788 H   0  0  0  0  0  0  0  0  0  0  0  0
    7.4121   -4.3892    0.4550 H   0  0  0  0  0  0  0  0  0  0  0  0
    8.1716   -4.6127   -1.8942 H   0  0  0  0  0  0  0  0  0  0  0  0
    6.8456   -3.6011   -3.7285 H   0  0  0  0  0  0  0  0  0  0  0  0
    4.7634   -2.3693   -3.2240 H   0  0  0  0  0  0  0  0  0  0  0  0
    1.6865   -0.3968   -1.2765 H   0  0  0  0  0  0  0  0  0  0  0  0
    2.5721    1.0492   -1.7836 H   0  0  0  0  0  0  0  0  0  0  0  0
  1  2  1  0
  2  3  1  0
  3  4  2  0
  3  5  1  0
  5  6  2  0
  6  7  1  0
  6  8  1  0
  8  9  1  0
  9 10  1  0
  9 11  2  0
 11 12  1  0
 12 13  1  0
 13 14  2  0
 14 15  1  0
 15 16  2  0
 16 17  1  0
 17 18  2  0
 17 19  1  0
 19 20  1  0
 19 21  2  0
 11 22  1  0
 22 23  2  0
 22 24  1  0
 24 25  1  0
 25 26  1  0
 26 27  1  0
 27 28  1  0
 28 29  1  0
 29 30  1  0
 30 31  1  0
 31 32  2  0
 32 33  1  0
 33 34  2  0
 34 35  1  0
 35 36  2  0
 29 37  1  0
 12  5  1  0
 18 13  1  0
 37 25  1  0
 36 31  1  0
  1 38  1  0
  1 39  1  0
  1 40  1  0
  7 41  1  0
  7 42  1  0
  7 43  1  0
  8 44  1  0
 10 45  1  0
 10 46  1  0
 10 47  1  0
 12 48  1  1
 14 49  1  0
 15 50  1  0
 16 51  1  0
 18 52  1  0
 25 53  1  1
 26 54  1  0
 26 55  1  0
 27 56  1  0
 27 57  1  0
 28 58  1  0
 28 59  1  0
 30 60  1  0
 30 61  1  0
 32 62  1  0
 33 63  1  0
 34 64  1  0
 35 65  1  0
 36 66  1  0
 37 67  1  0
 37 68  1  0
M  CHG  2  19   1  20  -1
M  END
$$$$
