
     RDKit          3D

 63 64  0  0  0  0  0  0  0  0999 V2000
    0.1659   -1.3608    2.2994 C   0  0  2  0  0  0  0  0  0  0  0  0
    0.6954   -2.1055    3.5401 C   0  0  0  0  0  0  0  0  0  0  0  0
   -0.6796   -2.7610    4.5407 S   0  0  0  0  0  0  0  0  0  0  0  0
    1.2425   -1.1319    1.3143 N   0  0  0  0  0  0  0  0  0  0  0  0
    2.1943   -0.0767    1.6949 C   0  0  0  0  0  0  0  0  0  0  0  0
    3.3704   -0.1045    0.7593 C   0  0  0  0  0  0  0  0  0  0  0  0
    4.4402   -0.9794    0.9973 C   0  0  0  0  0  0  0  0  0  0  0  0
    5.5185   -1.0346    0.1097 C   0  0  0  0  0  0  0  0  0  0  0  0
    5.5397   -0.2242   -1.0399 C   0  0  0  0  0  0  0  0  0  0  0  0
    4.4560    0.6392   -1.2828 C   0  0  0  0  0  0  0  0  0  0  0  0
    3.3789    0.6941   -0.3936 C   0  0  0  0  0  0  0  0  0  0  0  0
    6.6847   -0.2837   -1.9843 C   0  0  0  0  0  0  0  0  0  0  0  0
    8.0045   -0.3819   -1.5035 C   0  0  0  0  0  0  0  0  0  0  0  0
    9.0806   -0.4374   -2.3945 C   0  0  0  0  0  0  0  0  0  0  0  0
    8.8533   -0.3966   -3.7719 C   0  0  0  0  0  0  0  0  0  0  0  0
    7.5489   -0.2999   -4.2614 C   0  0  0  0  0  0  0  0  0  0  0  0
    6.4689   -0.2432   -3.3751 C   0  0  0  0  0  0  0  0  0  0  0  0
   -0.5776   -0.0852    2.6392 C   0  0  0  0  0  0  0  0  0  0  0  0
   -0.2821    0.5663    3.6790 O   0  0  0  0  0  0  0  0  0  0  0  0
   -1.5782    0.4128    1.7425 N   0  0  0  0  0  0  0  0  0  0  0  0
   -2.3025    1.6521    2.0189 C   0  0  0  0  0  0  0  0  0  0  0  0
   -3.2935    1.9356    0.9314 C   0  0  0  0  0  0  0  0  0  0  0  0
   -3.0697    2.8699    0.1148 O   0  0  0  0  0  0  0  0  0  0  0  0
   -4.4674    1.1196    0.8048 N   0  0  0  0  0  0  0  0  0  0  0  0
   -5.4069    1.2381   -0.3190 C   0  0  1  0  0  0  0  0  0  0  0  0
   -5.1461    0.1515   -1.3970 C   0  0  0  0  0  0  0  0  0  0  0  0
   -3.8043    0.3836   -2.1057 C   0  0  0  0  0  0  0  0  0  0  0  0
   -5.2055   -1.2798   -0.8375 C   0  0  0  0  0  0  0  0  0  0  0  0
   -6.8307    1.1878    0.1708 C   0  0  0  0  0  0  0  0  0  0  0  0
   -7.1325    0.5228    1.2006 O   0  0  0  0  0  0  0  0  0  0  0  0
   -7.8231    1.8494   -0.5586 O   0  0  0  0  0  0  0  0  0  0  0  0
   -9.1945    1.8267   -0.1821 C   0  0  0  0  0  0  0  0  0  0  0  0
   -0.5689   -2.0473    1.8215 H   0  0  0  0  0  0  0  0  0  0  0  0
    1.3124   -1.4416    4.1804 H   0  0  0  0  0  0  0  0  0  0  0  0
    1.3262   -2.9606    3.2155 H   0  0  0  0  0  0  0  0  0  0  0  0
    0.1943   -3.3340    5.4841 H   0  0  0  0  0  0  0  0  0  0  0  0
    0.8001   -0.8571    0.4048 H   0  0  0  0  0  0  0  0  0  0  0  0
    2.5613   -0.2259    2.7317 H   0  0  0  0  0  0  0  0  0  0  0  0
    1.7057    0.9225    1.6525 H   0  0  0  0  0  0  0  0  0  0  0  0
    4.4371   -1.6226    1.8688 H   0  0  0  0  0  0  0  0  0  0  0  0
    6.3258   -1.7272    0.3116 H   0  0  0  0  0  0  0  0  0  0  0  0
    4.4474    1.2831   -2.1532 H   0  0  0  0  0  0  0  0  0  0  0  0
    2.5521    1.3615   -0.6037 H   0  0  0  0  0  0  0  0  0  0  0  0
    8.2053   -0.3980   -0.4397 H   0  0  0  0  0  0  0  0  0  0  0  0
   10.0923   -0.5086   -2.0162 H   0  0  0  0  0  0  0  0  0  0  0  0
    9.6878   -0.4401   -4.4597 H   0  0  0  0  0  0  0  0  0  0  0  0
    7.3737   -0.2724   -5.3292 H   0  0  0  0  0  0  0  0  0  0  0  0
    5.4653   -0.1858   -3.7773 H   0  0  0  0  0  0  0  0  0  0  0  0
   -1.7821   -0.1288    0.8713 H   0  0  0  0  0  0  0  0  0  0  0  0
   -2.8425    1.5586    2.9854 H   0  0  0  0  0  0  0  0  0  0  0  0
   -1.5795    2.4929    2.1002 H   0  0  0  0  0  0  0  0  0  0  0  0
   -4.5909    0.3369    1.4868 H   0  0  0  0  0  0  0  0  0  0  0  0
   -5.2862    2.2345   -0.7987 H   0  0  0  0  0  0  0  0  0  0  0  0
   -5.9403    0.2413   -2.1722 H   0  0  0  0  0  0  0  0  0  0  0  0
   -2.9556    0.2509   -1.4022 H   0  0  0  0  0  0  0  0  0  0  0  0
   -3.6848   -0.3380   -2.9420 H   0  0  0  0  0  0  0  0  0  0  0  0
   -3.7639    1.4093   -2.5300 H   0  0  0  0  0  0  0  0  0  0  0  0
   -4.3912   -1.4560   -0.1031 H   0  0  0  0  0  0  0  0  0  0  0  0
   -5.0932   -2.0134   -1.6641 H   0  0  0  0  0  0  0  0  0  0  0  0
   -6.1834   -1.4707   -0.3493 H   0  0  0  0  0  0  0  0  0  0  0  0
   -9.7825    2.4212   -0.9111 H   0  0  0  0  0  0  0  0  0  0  0  0
   -9.3187    2.2707    0.8283 H   0  0  0  0  0  0  0  0  0  0  0  0
   -9.5713    0.7820   -0.1824 H   0  0  0  0  0  0  0  0  0  0  0  0
  1  2  1  0
  2  3  1  0
  1  4  1  0
  4  5  1  0
  5  6  1  0
  6  7  2  0
  7  8  1  0
  8  9  2  0
  9 10  1  0
 10 11  2  0
  9 12  1  0
 12 13  2  0
 13 14  1  0
 14 15  2  0
 15 16  1  0
 16 17  2  0
  1 18  1  0
 18 19  2  0
 18 20  1  0
 20 21  1  0
 21 22  1  0
 22 23  2  0
 22 24  1  0
 24 25  1  0
 25 26  1  0
 26 27  1  0
 26 28  1  0
 25 29  1  0
 29 30  2  0
 29 31  1  0
 31 32  1  0
 11  6  1  0
 17 12  1  0
  1 33  1  6
  2 34  1  0
  2 35  1  0
  3 36  1  0
  4 37  1  0
  5 38  1  0
  5 39  1  0
  7 40  1  0
  8 41  1  0
 10 42  1  0
 11 43  1  0
 13 44  1  0
 14 45  1  0
 15 46  1  0
 16 47  1  0
 17 48  1  0
 20 49  1  0
 21 50  1  0
 21 51  1  0
 24 52  1  0
 25 53  1  6
 26 54  1  0
 27 55  1  0
 27 56  1  0
 27 57  1  0
 28 58  1  0
 28 59  1  0
 28 60  1  0
 32 61  1  0
 32 62  1  0
 32 63  1  0
M  END
$$$$
