
     RDKit          3D

 25 23  0  0  0  0  0  0  0  0999 V2000
    0.0000    0.0000    0.0000 K   0  0  0  0  0 15  0  0  0  0  0  0
    1.2340   -0.3982   -0.3559 C   0  0  2  0  0  0  0  0  0  0  0  0
    1.2336   -1.6003    0.3695 O   0  0  0  0  0  0  0  0  0  0  0  0
    2.6845   -0.0291   -0.7198 C   0  0  0  0  0  0  0  0  0  0  0  0
    3.4801    0.0805    0.4312 O   0  0  0  0  0  0  0  0  0  0  0  0
    0.5408    0.7228    0.4690 C   0  0  1  0  0  0  0  0  0  0  0  0
    0.6326    1.9599   -0.1965 O   0  0  0  0  0  0  0  0  0  0  0  0
   -0.9411    0.4495    0.8768 C   0  0  2  0  0  0  0  0  0  0  0  0
   -1.0135   -0.3877    2.0069 O   0  0  0  0  0  0  0  0  0  0  0  0
   -1.8704   -0.0416   -0.2669 C   0  0  1  0  0  0  0  0  0  0  0  0
   -1.5961   -1.3796   -0.5967 O   0  0  0  0  0  0  0  0  0  0  0  0
   -3.3105    0.0891    0.1448 C   0  0  0  0  0  0  0  0  0  0  0  0
   -4.0469    1.1987   -0.2507 O   0  0  0  0  0  1  0  0  0  0  0  0
   -3.8447   -0.7804    0.8834 O   0  0  0  0  0  0  0  0  0  0  0  0
    0.6797   -0.5309   -1.3132 H   0  0  0  0  0  0  0  0  0  0  0  0
    1.3668   -2.3338   -0.2864 H   0  0  0  0  0  0  0  0  0  0  0  0
    3.1080   -0.8318   -1.3603 H   0  0  0  0  0  0  0  0  0  0  0  0
    2.7152    0.9086   -1.3214 H   0  0  0  0  0  0  0  0  0  0  0  0
    3.4518    1.0321    0.7120 H   0  0  0  0  0  0  0  0  0  0  0  0
    1.1083    0.8339    1.4189 H   0  0  0  0  0  0  0  0  0  0  0  0
    0.2179    1.8545   -1.0914 H   0  0  0  0  0  0  0  0  0  0  0  0
   -1.3400    1.4355    1.2066 H   0  0  0  0  0  0  0  0  0  0  0  0
   -0.7776   -1.3084    1.7304 H   0  0  0  0  0  0  0  0  0  0  0  0
   -1.7104    0.6025   -1.1611 H   0  0  0  0  0  0  0  0  0  0  0  0
   -2.0022   -1.5461   -1.4877 H   0  0  0  0  0  0  0  0  0  0  0  0
  2  3  1  0
  2  4  1  0
  4  5  1  0
  2  6  1  0
  6  7  1  0
  6  8  1  0
  8  9  1  0
  8 10  1  0
 10 11  1  0
 10 12  1  0
 12 13  1  0
 12 14  2  0
  2 15  1  6
  3 16  1  0
  4 17  1  0
  4 18  1  0
  5 19  1  0
  6 20  1  1
  7 21  1  0
  8 22  1  1
  9 23  1  0
 10 24  1  6
 11 25  1  0
M  CHG  2   1   1  13  -1
M  END
$$$$
