
     RDKit          3D

 35 36  0  0  0  0  0  0  0  0999 V2000
    3.5907    0.7990   -0.0965 C   0  0  0  0  0  0  0  0  0  0  0  0
    2.3784   -0.0328   -0.5303 C   0  0  0  0  0  0  0  0  0  0  0  0
    2.8094   -1.4430   -0.9445 C   0  0  0  0  0  0  0  0  0  0  0  0
    1.3572   -0.1084    0.5783 C   0  0  0  0  0  0  0  0  0  0  0  0
    1.7006   -0.5498    1.7083 O   0  0  0  0  0  0  0  0  0  0  0  0
   -0.0534    0.2617    0.3479 C   0  0  0  0  0  0  0  0  0  0  0  0
   -0.5558    1.3871   -0.2819 C   0  0  0  0  0  0  0  0  0  0  0  0
    0.1016    2.5052   -0.8012 C   0  0  0  0  0  0  0  0  0  0  0  0
   -0.6856    3.5139   -1.3784 C   0  0  0  0  0  0  0  0  0  0  0  0
   -2.0868    3.3889   -1.4150 C   0  0  0  0  0  0  0  0  0  0  0  0
   -2.6924    2.2512   -0.8631 C   0  0  0  0  0  0  0  0  0  0  0  0
   -1.8959    1.2999   -0.3133 N   0  0  0  0  0  0  0  0  0  0  0  0
   -2.3039    0.1817    0.2600 N   0  0  0  0  0  0  0  0  0  0  0  0
   -1.1967   -0.4672    0.6941 C   0  0  0  0  0  0  0  0  0  0  0  0
   -1.2330   -1.8503    1.2965 C   0  0  0  0  0  0  0  0  0  0  0  0
   -2.4152   -1.9972    2.2610 C   0  0  0  0  0  0  0  0  0  0  0  0
   -1.3037   -2.9015    0.1862 C   0  0  0  0  0  0  0  0  0  0  0  0
    3.2691    1.8136    0.2202 H   0  0  0  0  0  0  0  0  0  0  0  0
    4.1207    0.3133    0.7511 H   0  0  0  0  0  0  0  0  0  0  0  0
    4.3002    0.9085   -0.9442 H   0  0  0  0  0  0  0  0  0  0  0  0
    1.9292    0.4499   -1.4246 H   0  0  0  0  0  0  0  0  0  0  0  0
    3.2876   -1.9765   -0.0948 H   0  0  0  0  0  0  0  0  0  0  0  0
    3.5329   -1.3900   -1.7859 H   0  0  0  0  0  0  0  0  0  0  0  0
    1.9269   -2.0267   -1.2834 H   0  0  0  0  0  0  0  0  0  0  0  0
    1.1757    2.6099   -0.7543 H   0  0  0  0  0  0  0  0  0  0  0  0
   -0.2126    4.3947   -1.7929 H   0  0  0  0  0  0  0  0  0  0  0  0
   -2.6927    4.1678   -1.8592 H   0  0  0  0  0  0  0  0  0  0  0  0
   -3.7691    2.1374   -0.8710 H   0  0  0  0  0  0  0  0  0  0  0  0
   -0.3070   -2.0278    1.8813 H   0  0  0  0  0  0  0  0  0  0  0  0
   -2.3898   -2.9967    2.7453 H   0  0  0  0  0  0  0  0  0  0  0  0
   -3.3821   -1.8871    1.7242 H   0  0  0  0  0  0  0  0  0  0  0  0
   -2.3552   -1.2245    3.0572 H   0  0  0  0  0  0  0  0  0  0  0  0
   -2.2287   -2.7748   -0.4169 H   0  0  0  0  0  0  0  0  0  0  0  0
   -0.4231   -2.8071   -0.4846 H   0  0  0  0  0  0  0  0  0  0  0  0
   -1.2974   -3.9223    0.6243 H   0  0  0  0  0  0  0  0  0  0  0  0
  1  2  1  0
  2  3  1  0
  2  4  1  0
  4  5  2  0
  4  6  1  0
  6  7  2  0
  7  8  1  0
  8  9  2  0
  9 10  1  0
 10 11  2  0
 11 12  1  0
 12 13  1  0
 13 14  2  0
 14 15  1  0
 15 16  1  0
 15 17  1  0
 14  6  1  0
 12  7  1  0
  1 18  1  0
  1 19  1  0
  1 20  1  0
  2 21  1  0
  3 22  1  0
  3 23  1  0
  3 24  1  0
  8 25  1  0
  9 26  1  0
 10 27  1  0
 11 28  1  0
 15 29  1  0
 16 30  1  0
 16 31  1  0
 16 32  1  0
 17 33  1  0
 17 34  1  0
 17 35  1  0
M  END
$$$$
