
     RDKit          3D

 26 28  0  0  0  0  0  0  0  0999 V2000
    4.5556    0.6378   -1.7348 N   0  0  0  0  0  0  0  0  0  0  0  0
    4.1386   -0.1307   -0.2439 S   0  0  0  0  0  6  0  0  0  0  0  0
    5.0168    0.3976    0.8556 O   0  0  0  0  0  0  0  0  0  0  0  0
    4.3531   -1.6140   -0.3618 O   0  0  0  0  0  0  0  0  0  0  0  0
    2.4511    0.1981    0.1316 C   0  0  0  0  0  0  0  0  0  0  0  0
    2.1033    1.3357    0.9032 C   0  0  0  0  0  0  0  0  0  0  0  0
    0.7558    1.6148    1.1983 C   0  0  0  0  0  0  0  0  0  0  0  0
   -0.2065    0.7398    0.7021 C   0  0  0  0  0  0  0  0  0  0  0  0
   -1.5359    0.7973    0.8458 N   0  0  0  0  0  0  0  0  0  0  0  0
   -1.9837   -0.2886    0.1634 C   0  0  0  0  0  0  0  0  0  0  0  0
   -0.9882   -1.0234   -0.4020 N   0  0  0  0  0  0  0  0  0  0  0  0
    0.1200   -0.3507   -0.0449 C   0  0  0  0  0  0  0  0  0  0  0  0
    1.4415   -0.6590   -0.3571 C   0  0  0  0  0  0  0  0  0  0  0  0
   -3.4048   -0.6530    0.0349 C   0  0  0  0  0  0  0  0  0  0  0  0
   -4.4486    0.0772    0.6013 C   0  0  0  0  0  0  0  0  0  0  0  0
   -5.8854   -0.6973    0.2023 S   0  0  0  0  0  0  0  0  0  0  0  0
   -5.1312   -1.9198   -0.6671 C   0  0  0  0  0  0  0  0  0  0  0  0
   -3.7910   -1.7555   -0.6646 N   0  0  0  0  0  0  0  0  0  0  0  0
    5.5403    0.3665   -1.9537 H   0  0  0  0  0  0  0  0  0  0  0  0
    3.9540    0.2129   -2.4756 H   0  0  0  0  0  0  0  0  0  0  0  0
    2.8728    2.0024    1.2702 H   0  0  0  0  0  0  0  0  0  0  0  0
    0.4787    2.4796    1.7870 H   0  0  0  0  0  0  0  0  0  0  0  0
   -2.0869    1.5168    1.3639 H   0  0  0  0  0  0  0  0  0  0  0  0
    1.6788   -1.5275   -0.9581 H   0  0  0  0  0  0  0  0  0  0  0  0
   -4.3644    0.9789    1.1918 H   0  0  0  0  0  0  0  0  0  0  0  0
   -5.6338   -2.7360   -1.1676 H   0  0  0  0  0  0  0  0  0  0  0  0
  1  2  1  0
  2  3  2  0
  2  4  2  0
  2  5  1  0
  5  6  2  0
  6  7  1  0
  7  8  2  0
  8  9  1  0
  9 10  1  0
 10 11  2  0
 11 12  1  0
 12 13  2  0
 10 14  1  0
 14 15  2  0
 15 16  1  0
 16 17  1  0
 17 18  2  0
 13  5  1  0
 18 14  1  0
 12  8  1  0
  1 19  1  0
  1 20  1  0
  6 21  1  0
  7 22  1  0
  9 23  1  0
 13 24  1  0
 15 25  1  0
 17 26  1  0
M  END
$$$$
