
     RDKit          3D

 56 56  0  0  0  0  0  0  0  0999 V2000
   -1.5061   -0.3840    0.7615 C   0  0  2  0  0  0  0  0  0  0  0  0
   -1.1192   -1.4116    1.8446 C   0  0  0  0  0  0  0  0  0  0  0  0
   -2.0788   -2.6145    1.8759 C   0  0  0  0  0  0  0  0  0  0  0  0
   -1.7595   -3.5931    3.0167 C   0  0  0  0  0  0  0  0  0  0  0  0
   -0.4903   -4.4051    2.7634 C   0  0  0  0  0  0  0  0  0  0  0  0
   -0.4717    0.6482    0.6491 N   0  0  0  0  0  0  0  0  0  0  0  0
   -0.3902    1.5248   -0.4842 C   0  0  0  0  0  0  0  0  0  0  0  0
   -1.2340    1.4335   -1.4179 O   0  0  0  0  0  0  0  0  0  0  0  0
    0.7434    2.5132   -0.5967 C   0  0  2  0  0  0  0  0  0  0  0  0
    0.2327    3.9330   -0.9319 C   0  0  0  0  0  0  0  0  0  0  0  0
   -0.7612    4.5147    0.1050 C   0  0  0  0  0  0  0  0  0  0  0  0
   -0.1142    4.7028    1.4857 C   0  0  0  0  0  0  0  0  0  0  0  0
   -1.3130    5.8549   -0.3981 C   0  0  0  0  0  0  0  0  0  0  0  0
    1.6728    2.0498   -1.6304 N   0  0  0  0  0  0  0  0  0  0  0  0
    2.4550    0.8640   -1.4535 C   0  0  0  0  0  0  0  0  0  0  0  0
    2.6243    0.3818   -0.2996 O   0  0  0  0  0  0  0  0  0  0  0  0
    2.9971    0.2263   -2.5737 O   0  0  0  0  0  0  0  0  0  0  0  0
    3.5383   -1.0922   -2.5268 C   0  0  0  0  0  0  0  0  0  0  0  0
    2.4430   -2.0897   -2.2570 C   0  0  0  0  0  0  0  0  0  0  0  0
    1.4615   -2.3317   -3.2312 C   0  0  0  0  0  0  0  0  0  0  0  0
    0.4094   -3.2140   -2.9678 C   0  0  0  0  0  0  0  0  0  0  0  0
    0.3267   -3.8571   -1.7288 C   0  0  0  0  0  0  0  0  0  0  0  0
   -1.1078   -5.0671   -1.3759 Br  0  0  0  0  0  0  0  0  0  0  0  0
    1.2971   -3.6151   -0.7513 C   0  0  0  0  0  0  0  0  0  0  0  0
    2.3504   -2.7332   -1.0116 C   0  0  0  0  0  0  0  0  0  0  0  0
   -2.8292    0.2655    1.0688 C   0  0  0  0  0  0  0  0  0  0  0  0
   -2.9664    0.9596    2.0642 O   0  0  0  0  0  0  0  0  0  0  0  0
   -1.5824   -0.9218   -0.2101 H   0  0  0  0  0  0  0  0  0  0  0  0
   -1.1006   -0.9172    2.8412 H   0  0  0  0  0  0  0  0  0  0  0  0
   -0.0926   -1.7750    1.6238 H   0  0  0  0  0  0  0  0  0  0  0  0
   -2.0501   -3.1471    0.9009 H   0  0  0  0  0  0  0  0  0  0  0  0
   -3.1174   -2.2493    2.0274 H   0  0  0  0  0  0  0  0  0  0  0  0
   -1.6647   -3.0430    3.9781 H   0  0  0  0  0  0  0  0  0  0  0  0
   -2.6092   -4.3025    3.1192 H   0  0  0  0  0  0  0  0  0  0  0  0
    0.4036   -3.7482    2.7492 H   0  0  0  0  0  0  0  0  0  0  0  0
   -0.3598   -5.1478    3.5783 H   0  0  0  0  0  0  0  0  0  0  0  0
   -0.5667   -4.9515    1.8001 H   0  0  0  0  0  0  0  0  0  0  0  0
    0.2368    0.7497    1.4114 H   0  0  0  0  0  0  0  0  0  0  0  0
    1.2982    2.5662    0.3638 H   0  0  0  0  0  0  0  0  0  0  0  0
    1.1083    4.6141   -1.0201 H   0  0  0  0  0  0  0  0  0  0  0  0
   -0.2607    3.9069   -1.9292 H   0  0  0  0  0  0  0  0  0  0  0  0
   -1.6247    3.8230    0.2163 H   0  0  0  0  0  0  0  0  0  0  0  0
   -0.8149    5.2247    2.1719 H   0  0  0  0  0  0  0  0  0  0  0  0
    0.8181    5.3018    1.4049 H   0  0  0  0  0  0  0  0  0  0  0  0
    0.1199    3.7203    1.9448 H   0  0  0  0  0  0  0  0  0  0  0  0
   -2.0597    6.2581    0.3190 H   0  0  0  0  0  0  0  0  0  0  0  0
   -1.8198    5.7188   -1.3773 H   0  0  0  0  0  0  0  0  0  0  0  0
   -0.4934    6.5960   -0.5178 H   0  0  0  0  0  0  0  0  0  0  0  0
    1.6556    2.4877   -2.5795 H   0  0  0  0  0  0  0  0  0  0  0  0
    4.0056   -1.3214   -3.5077 H   0  0  0  0  0  0  0  0  0  0  0  0
    4.3390   -1.1465   -1.7568 H   0  0  0  0  0  0  0  0  0  0  0  0
    1.5082   -1.8310   -4.1905 H   0  0  0  0  0  0  0  0  0  0  0  0
   -0.3420   -3.3949   -3.7256 H   0  0  0  0  0  0  0  0  0  0  0  0
    1.2368   -4.1083    0.2093 H   0  0  0  0  0  0  0  0  0  0  0  0
    3.0876   -2.5479   -0.2404 H   0  0  0  0  0  0  0  0  0  0  0  0
   -3.6691    0.1224    0.3970 H   0  0  0  0  0  0  0  0  0  0  0  0
  1  2  1  0
  2  3  1  0
  3  4  1  0
  4  5  1  0
  1  6  1  0
  6  7  1  0
  7  8  2  0
  7  9  1  0
  9 10  1  0
 10 11  1  0
 11 12  1  0
 11 13  1  0
  9 14  1  0
 14 15  1  0
 15 16  2  0
 15 17  1  0
 17 18  1  0
 18 19  1  0
 19 20  2  0
 20 21  1  0
 21 22  2  0
 22 23  1  0
 22 24  1  0
 24 25  2  0
  1 26  1  0
 26 27  2  0
 25 19  1  0
  1 28  1  6
  2 29  1  0
  2 30  1  0
  3 31  1  0
  3 32  1  0
  4 33  1  0
  4 34  1  0
  5 35  1  0
  5 36  1  0
  5 37  1  0
  6 38  1  0
  9 39  1  1
 10 40  1  0
 10 41  1  0
 11 42  1  0
 12 43  1  0
 12 44  1  0
 12 45  1  0
 13 46  1  0
 13 47  1  0
 13 48  1  0
 14 49  1  0
 18 50  1  0
 18 51  1  0
 20 52  1  0
 21 53  1  0
 24 54  1  0
 25 55  1  0
 26 56  1  0
M  END
$$$$
