
     RDKit          3D

 37 37  0  0  0  0  0  0  0  0999 V2000
   -3.8805   -0.1936   -1.4577 C   0  0  0  0  0  0  0  0  0  0  0  0
   -3.4024    0.3889   -0.1079 C   0  0  0  0  0  0  0  0  0  0  0  0
   -3.7094    1.9017   -0.0932 C   0  0  0  0  0  0  0  0  0  0  0  0
   -4.1817   -0.2607    1.0570 C   0  0  0  0  0  0  0  0  0  0  0  0
   -1.9400    0.2147    0.0831 N   0  0  0  0  0  0  0  0  0  0  0  0
   -1.4412   -1.1621   -0.0944 C   0  0  0  0  0  0  0  0  0  0  0  0
   -0.0780   -1.3425    0.5911 C   0  0  0  0  0  0  0  0  0  0  0  0
   -0.1960   -1.0180    1.9528 O   0  0  0  0  0  0  0  0  0  0  0  0
    1.0129   -0.4843   -0.0647 C   0  0  0  0  0  0  0  0  0  0  0  0
    2.2847   -0.8348    0.4756 O   0  0  0  0  0  0  0  0  0  0  0  0
    3.5003   -0.2416    0.1009 C   0  0  0  0  0  0  0  0  0  0  0  0
    3.5698    0.7743   -0.8739 C   0  0  0  0  0  0  0  0  0  0  0  0
    4.8027    1.3393   -1.2181 C   0  0  0  0  0  0  0  0  0  0  0  0
    4.8804    2.6032   -2.4323 Cl  0  0  0  0  0  0  0  0  0  0  0  0
    5.9730    0.8974   -0.5951 C   0  0  0  0  0  0  0  0  0  0  0  0
    5.9131   -0.1086    0.3716 C   0  0  0  0  0  0  0  0  0  0  0  0
    4.6831   -0.6777    0.7203 C   0  0  0  0  0  0  0  0  0  0  0  0
    4.6359   -1.9411    1.9405 Cl  0  0  0  0  0  0  0  0  0  0  0  0
   -3.7886   -1.3000   -1.4744 H   0  0  0  0  0  0  0  0  0  0  0  0
   -3.2799    0.2240   -2.2941 H   0  0  0  0  0  0  0  0  0  0  0  0
   -4.9494    0.0550   -1.6336 H   0  0  0  0  0  0  0  0  0  0  0  0
   -4.8003    2.0903   -0.1957 H   0  0  0  0  0  0  0  0  0  0  0  0
   -3.1918    2.4155   -0.9319 H   0  0  0  0  0  0  0  0  0  0  0  0
   -3.3619    2.3569    0.8594 H   0  0  0  0  0  0  0  0  0  0  0  0
   -4.1605   -1.3681    1.0052 H   0  0  0  0  0  0  0  0  0  0  0  0
   -3.7525    0.0568    2.0316 H   0  0  0  0  0  0  0  0  0  0  0  0
   -5.2515    0.0403    1.0299 H   0  0  0  0  0  0  0  0  0  0  0  0
   -1.4389    0.8169   -0.6128 H   0  0  0  0  0  0  0  0  0  0  0  0
   -2.1323   -1.9037    0.3533 H   0  0  0  0  0  0  0  0  0  0  0  0
   -1.3466   -1.4026   -1.1773 H   0  0  0  0  0  0  0  0  0  0  0  0
    0.2070   -2.4157    0.4820 H   0  0  0  0  0  0  0  0  0  0  0  0
    0.5566   -1.4638    2.4226 H   0  0  0  0  0  0  0  0  0  0  0  0
    1.0196   -0.6660   -1.1618 H   0  0  0  0  0  0  0  0  0  0  0  0
    0.8151    0.5920    0.1308 H   0  0  0  0  0  0  0  0  0  0  0  0
    2.6768    1.1312   -1.3687 H   0  0  0  0  0  0  0  0  0  0  0  0
    6.9286    1.3323   -0.8590 H   0  0  0  0  0  0  0  0  0  0  0  0
    6.8239   -0.4458    0.8501 H   0  0  0  0  0  0  0  0  0  0  0  0
  1  2  1  0
  2  3  1  0
  2  4  1  0
  2  5  1  0
  5  6  1  0
  6  7  1  0
  7  8  1  0
  7  9  1  0
  9 10  1  0
 10 11  1  0
 11 12  2  0
 12 13  1  0
 13 14  1  0
 13 15  2  0
 15 16  1  0
 16 17  2  0
 17 18  1  0
 17 11  1  0
  1 19  1  0
  1 20  1  0
  1 21  1  0
  3 22  1  0
  3 23  1  0
  3 24  1  0
  4 25  1  0
  4 26  1  0
  4 27  1  0
  5 28  1  0
  6 29  1  0
  6 30  1  0
  7 31  1  0
  8 32  1  0
  9 33  1  0
  9 34  1  0
 12 35  1  0
 15 36  1  0
 16 37  1  0
M  END
$$$$
