
     RDKit          3D

 14 13  0  0  0  0  0  0  0  0999 V2000
    0.0044   -1.2764    0.9330 N   0  0  0  0  0  0  0  0  0  0  0  0
   -0.3207   -0.5833   -0.3170 C   0  0  2  0  0  0  0  0  0  0  0  0
    0.9187    0.0691   -0.9636 C   0  0  0  0  0  0  0  0  0  0  0  0
    1.6492    1.3993    0.0530 S   0  0  0  0  0  0  0  0  0  0  0  0
   -1.4215    0.4191   -0.0990 C   0  0  0  0  0  0  0  0  0  0  0  0
   -1.4955    1.1394    1.0904 O   0  0  0  0  0  0  0  0  0  0  0  0
   -2.2581    0.6395   -1.0154 O   0  0  0  0  0  0  0  0  0  0  0  0
    0.3938   -0.6022    1.6303 H   0  0  0  0  0  0  0  0  0  0  0  0
    0.7441   -1.9903    0.7399 H   0  0  0  0  0  0  0  0  0  0  0  0
   -0.7008   -1.3466   -1.0324 H   0  0  0  0  0  0  0  0  0  0  0  0
    1.6922   -0.7039   -1.1599 H   0  0  0  0  0  0  0  0  0  0  0  0
    0.6298    0.5046   -1.9441 H   0  0  0  0  0  0  0  0  0  0  0  0
    2.3879    0.5031    0.8486 H   0  0  0  0  0  0  0  0  0  0  0  0
   -2.2234    1.8285    1.2363 H   0  0  0  0  0  0  0  0  0  0  0  0
  1  2  1  0
  2  3  1  0
  3  4  1  0
  2  5  1  0
  5  6  1  0
  5  7  2  0
  1  8  1  0
  1  9  1  0
  2 10  1  6
  3 11  1  0
  3 12  1  0
  4 13  1  0
  6 14  1  0
M  END
$$$$
