
     RDKit          3D

 28 30  0  0  0  0  0  0  0  0999 V2000
    4.8714    0.9491    0.5596 O   0  0  0  0  0  0  0  0  0  0  0  0
    3.6362    0.3312    0.3694 C   0  0  0  0  0  0  0  0  0  0  0  0
    2.4751    1.1133    0.2950 C   0  0  0  0  0  0  0  0  0  0  0  0
    2.6095    2.4905    0.4906 O   0  0  0  0  0  0  0  0  0  0  0  0
    1.2182    0.4913    0.0645 C   0  0  0  0  0  0  0  0  0  0  0  0
    1.1458   -0.9179    0.0197 C   0  0  0  0  0  0  0  0  0  0  0  0
    2.3196   -1.6822    0.1134 C   0  0  0  0  0  0  0  0  0  0  0  0
    3.5557   -1.0603    0.2699 C   0  0  0  0  0  0  0  0  0  0  0  0
   -0.1664   -1.5839   -0.1419 C   0  0  0  0  0  0  0  0  0  0  0  0
   -0.2081   -2.7865   -0.5177 O   0  0  0  0  0  0  0  0  0  0  0  0
   -1.4189   -0.8076    0.0624 C   0  0  0  0  0  0  0  0  0  0  0  0
   -2.6749   -1.4297    0.2933 C   0  0  0  0  0  0  0  0  0  0  0  0
   -2.8138   -2.7991    0.5319 O   0  0  0  0  0  0  0  0  0  0  0  0
   -3.8362   -0.6552    0.3247 C   0  0  0  0  0  0  0  0  0  0  0  0
   -3.7713    0.7288    0.2001 C   0  0  0  0  0  0  0  0  0  0  0  0
   -2.5383    1.3686    0.0470 C   0  0  0  0  0  0  0  0  0  0  0  0
   -2.4962    2.7614   -0.0270 O   0  0  0  0  0  0  0  0  0  0  0  0
   -1.3513    0.6054   -0.0234 C   0  0  0  0  0  0  0  0  0  0  0  0
   -0.0268    1.2603   -0.1972 C   0  0  0  0  0  0  0  0  0  0  0  0
    0.0375    2.4344   -0.6507 O   0  0  0  0  0  0  0  0  0  0  0  0
    5.7291    0.4131    0.6231 H   0  0  0  0  0  0  0  0  0  0  0  0
    1.8343    3.1058    0.6940 H   0  0  0  0  0  0  0  0  0  0  0  0
    2.2816   -2.7635    0.0672 H   0  0  0  0  0  0  0  0  0  0  0  0
    4.4522   -1.6640    0.3350 H   0  0  0  0  0  0  0  0  0  0  0  0
   -2.0455   -3.4067    0.7790 H   0  0  0  0  0  0  0  0  0  0  0  0
   -4.7970   -1.1298    0.4803 H   0  0  0  0  0  0  0  0  0  0  0  0
   -4.6840    1.3092    0.2475 H   0  0  0  0  0  0  0  0  0  0  0  0
   -3.3375    3.3240    0.0244 H   0  0  0  0  0  0  0  0  0  0  0  0
  1  2  1  0
  2  3  2  0
  3  4  1  0
  3  5  1  0
  5  6  2  0
  6  7  1  0
  7  8  2  0
  6  9  1  0
  9 10  2  0
  9 11  1  0
 11 12  2  0
 12 13  1  0
 12 14  1  0
 14 15  2  0
 15 16  1  0
 16 17  1  0
 16 18  2  0
 18 19  1  0
 19 20  2  0
  8  2  1  0
 18 11  1  0
 19  5  1  0
  1 21  1  0
  4 22  1  0
  7 23  1  0
  8 24  1  0
 13 25  1  0
 14 26  1  0
 15 27  1  0
 17 28  1  0
M  END
$$$$
