
     RDKit          3D

 22 21  0  0  0  0  0  0  0  0999 V2000
   -0.3649   -0.8799   -1.9510 C   0  0  0  0  0  0  0  0  0  0  0  0
    0.1655   -0.0045   -0.8083 C   0  0  2  0  0  0  0  0  0  0  0  0
    0.9079   -0.8340    0.0689 O   0  0  0  0  0  0  0  0  0  0  0  0
    2.4032   -0.1070    0.4662 P   0  0  0  0  0  5  0  0  0  0  0  0
    2.1584    1.4177    1.1631 O   0  0  0  0  0  0  0  0  0  0  0  0
    3.2062   -1.0901    1.5842 O   0  0  0  0  0  0  0  0  0  0  0  0
    3.2584    0.0262   -0.7751 O   0  0  0  0  0  0  0  0  0  0  0  0
   -0.9624    0.7043   -0.0151 C   0  0  1  0  0  0  0  0  0  0  0  0
   -1.6813    1.6657   -0.8588 N   0  0  0  0  0  0  0  0  0  0  0  0
   -1.9018   -0.2710    0.6543 C   0  0  0  0  0  0  0  0  0  0  0  0
   -1.6033   -0.7438    1.9285 O   0  0  0  0  0  0  0  0  0  0  0  0
   -2.9307   -0.6905    0.0582 O   0  0  0  0  0  0  0  0  0  0  0  0
   -1.0270   -1.6830   -1.5657 H   0  0  0  0  0  0  0  0  0  0  0  0
   -0.9152   -0.2720   -2.6984 H   0  0  0  0  0  0  0  0  0  0  0  0
    0.4902   -1.3606   -2.4723 H   0  0  0  0  0  0  0  0  0  0  0  0
    0.7803    0.7865   -1.3008 H   0  0  0  0  0  0  0  0  0  0  0  0
    2.0624    2.0415    0.3998 H   0  0  0  0  0  0  0  0  0  0  0  0
    3.2392   -1.9832    1.1572 H   0  0  0  0  0  0  0  0  0  0  0  0
   -0.4711    1.2851    0.7958 H   0  0  0  0  0  0  0  0  0  0  0  0
   -2.3072    2.2395   -0.2474 H   0  0  0  0  0  0  0  0  0  0  0  0
   -2.2974    1.1638   -1.5379 H   0  0  0  0  0  0  0  0  0  0  0  0
   -2.2095   -1.4110    2.3906 H   0  0  0  0  0  0  0  0  0  0  0  0
  1  2  1  0
  2  3  1  0
  3  4  1  0
  4  5  1  0
  4  6  1  0
  4  7  2  0
  2  8  1  0
  8  9  1  0
  8 10  1  0
 10 11  1  0
 10 12  2  0
  1 13  1  0
  1 14  1  0
  1 15  1  0
  2 16  1  6
  5 17  1  0
  6 18  1  0
  8 19  1  1
  9 20  1  0
  9 21  1  0
 11 22  1  0
M  END
$$$$
