
     RDKit          3D

 55 57  0  0  0  0  0  0  0  0999 V2000
    4.6201    1.0063    2.0418 C   0  0  0  0  0  0  0  0  0  0  0  0
    3.8237    0.4223    0.8749 C   0  0  0  0  0  0  0  0  0  0  0  0
    4.2973   -0.9888    0.4703 C   0  0  2  0  0  0  0  0  0  0  0  0
    5.6849   -0.9608   -0.1977 C   0  0  0  0  0  0  0  0  0  0  0  0
    6.0448   -2.2428   -0.6379 O   0  0  0  0  0  0  0  0  0  0  0  0
    3.3184   -1.5724   -0.4512 N   0  0  0  0  0  0  0  0  0  0  0  0
    2.1511   -2.2657    0.0125 C   0  0  0  0  0  0  0  0  0  0  0  0
    2.0707   -2.6488    1.2112 O   0  0  0  0  0  0  0  0  0  0  0  0
    0.9882   -2.4794   -0.9056 C   0  0  0  0  0  0  0  0  0  0  0  0
    0.0018   -1.3573   -0.7410 C   0  0  0  0  0  0  0  0  0  0  0  0
    0.0311   -0.0976   -1.3493 C   0  0  0  0  0  0  0  0  0  0  0  0
    1.0470    0.3653   -2.3537 C   0  0  0  0  0  0  0  0  0  0  0  0
   -0.9456    0.6955   -0.8352 N   0  0  0  0  0  0  0  0  0  0  0  0
   -1.1815    2.0786   -1.1478 C   0  0  0  0  0  0  0  0  0  0  0  0
   -0.2212    2.8939   -1.0877 O   0  0  0  0  0  0  0  0  0  0  0  0
   -2.5253    2.5550   -1.5538 C   0  0  0  0  0  0  0  0  0  0  0  0
   -2.8450    3.9232   -1.4844 C   0  0  0  0  0  0  0  0  0  0  0  0
   -4.1115    4.3747   -1.8682 C   0  0  0  0  0  0  0  0  0  0  0  0
   -5.0694    3.4680   -2.3310 C   0  0  0  0  0  0  0  0  0  0  0  0
   -6.6576    4.0367   -2.8115 Cl  0  0  0  0  0  0  0  0  0  0  0  0
   -4.7585    2.1077   -2.4137 C   0  0  0  0  0  0  0  0  0  0  0  0
   -3.4934    1.6523   -2.0313 C   0  0  0  0  0  0  0  0  0  0  0  0
   -1.5807   -0.0446    0.0992 C   0  0  0  0  0  0  0  0  0  0  0  0
   -2.6069    0.3532    0.9608 C   0  0  0  0  0  0  0  0  0  0  0  0
   -3.0822   -0.5759    1.9018 C   0  0  0  0  0  0  0  0  0  0  0  0
   -2.5157   -1.8764    1.9858 C   0  0  0  0  0  0  0  0  0  0  0  0
   -2.9593   -2.8276    2.9161 O   0  0  0  0  0  0  0  0  0  0  0  0
   -4.0056   -2.6050    3.8556 C   0  0  0  0  0  0  0  0  0  0  0  0
   -1.4681   -2.2351    1.1173 C   0  0  0  0  0  0  0  0  0  0  0  0
   -1.0271   -1.2971    0.1827 C   0  0  0  0  0  0  0  0  0  0  0  0
    4.6196    0.3049    2.9031 H   0  0  0  0  0  0  0  0  0  0  0  0
    4.1533    1.9606    2.3648 H   0  0  0  0  0  0  0  0  0  0  0  0
    5.6652    1.2212    1.7383 H   0  0  0  0  0  0  0  0  0  0  0  0
    3.8837    1.1113    0.0042 H   0  0  0  0  0  0  0  0  0  0  0  0
    2.7568    0.3692    1.1847 H   0  0  0  0  0  0  0  0  0  0  0  0
    4.3711   -1.6234    1.3815 H   0  0  0  0  0  0  0  0  0  0  0  0
    6.4547   -0.5808    0.5099 H   0  0  0  0  0  0  0  0  0  0  0  0
    5.6664   -0.2796   -1.0754 H   0  0  0  0  0  0  0  0  0  0  0  0
    6.2843   -2.7646    0.1722 H   0  0  0  0  0  0  0  0  0  0  0  0
    3.3672   -1.3055   -1.4607 H   0  0  0  0  0  0  0  0  0  0  0  0
    0.5018   -3.4501   -0.6724 H   0  0  0  0  0  0  0  0  0  0  0  0
    1.3341   -2.5422   -1.9576 H   0  0  0  0  0  0  0  0  0  0  0  0
    1.4009   -0.4792   -2.9783 H   0  0  0  0  0  0  0  0  0  0  0  0
    1.9097    0.8190   -1.8240 H   0  0  0  0  0  0  0  0  0  0  0  0
    0.5997    1.1187   -3.0344 H   0  0  0  0  0  0  0  0  0  0  0  0
   -2.1200    4.6423   -1.1242 H   0  0  0  0  0  0  0  0  0  0  0  0
   -4.3469    5.4294   -1.8046 H   0  0  0  0  0  0  0  0  0  0  0  0
   -5.4949    1.4025   -2.7774 H   0  0  0  0  0  0  0  0  0  0  0  0
   -3.2716    0.5963   -2.1182 H   0  0  0  0  0  0  0  0  0  0  0  0
   -3.0250    1.3498    0.9209 H   0  0  0  0  0  0  0  0  0  0  0  0
   -3.8804   -0.2735    2.5655 H   0  0  0  0  0  0  0  0  0  0  0  0
   -4.1490   -3.5223    4.4626 H   0  0  0  0  0  0  0  0  0  0  0  0
   -3.7376   -1.7679    4.5343 H   0  0  0  0  0  0  0  0  0  0  0  0
   -4.9540   -2.3783    3.3243 H   0  0  0  0  0  0  0  0  0  0  0  0
   -1.0137   -3.2151    1.1823 H   0  0  0  0  0  0  0  0  0  0  0  0
  1  2  1  0
  2  3  1  0
  3  4  1  0
  4  5  1  0
  3  6  1  0
  6  7  1  0
  7  8  2  0
  7  9  1  0
  9 10  1  0
 10 11  2  0
 11 12  1  0
 11 13  1  0
 13 14  1  0
 14 15  2  0
 14 16  1  0
 16 17  2  0
 17 18  1  0
 18 19  2  0
 19 20  1  0
 19 21  1  0
 21 22  2  0
 13 23  1  0
 23 24  2  0
 24 25  1  0
 25 26  2  0
 26 27  1  0
 27 28  1  0
 26 29  1  0
 29 30  2  0
 30 10  1  0
 22 16  1  0
 30 23  1  0
  1 31  1  0
  1 32  1  0
  1 33  1  0
  2 34  1  0
  2 35  1  0
  3 36  1  1
  4 37  1  0
  4 38  1  0
  5 39  1  0
  6 40  1  0
  9 41  1  0
  9 42  1  0
 12 43  1  0
 12 44  1  0
 12 45  1  0
 17 46  1  0
 18 47  1  0
 21 48  1  0
 22 49  1  0
 24 50  1  0
 25 51  1  0
 28 52  1  0
 28 53  1  0
 28 54  1  0
 29 55  1  0
M  END
$$$$
