
     RDKit          3D

 32 32  0  0  0  0  0  0  0  0999 V2000
    4.9366    0.3842    0.0062 C   0  0  0  0  0  0  0  0  0  0  0  0
    3.6080   -0.2112   -0.4511 C   0  0  0  0  0  0  0  0  0  0  0  0
    2.4529    0.2645    0.4424 C   0  0  0  0  0  0  0  0  0  0  0  0
    1.1186   -0.4160    0.0983 C   0  0  0  0  0  0  0  0  0  0  0  0
    0.5153    0.0983   -1.2199 C   0  0  0  0  0  0  0  0  0  0  0  0
   -0.8291   -0.5695   -1.5459 C   0  0  0  0  0  0  0  0  0  0  0  0
   -1.9196   -0.1523   -0.5868 C   0  0  0  0  0  0  0  0  0  0  0  0
   -2.3129   -0.9838    0.4824 C   0  0  0  0  0  0  0  0  0  0  0  0
   -1.7085   -2.2273    0.6666 O   0  0  0  0  0  0  0  0  0  0  0  0
   -3.3141   -0.5566    1.3672 C   0  0  0  0  0  0  0  0  0  0  0  0
   -3.9222    0.6940    1.1986 C   0  0  0  0  0  0  0  0  0  0  0  0
   -4.9166    1.1242    2.0742 O   0  0  0  0  0  0  0  0  0  0  0  0
   -3.5281    1.5203    0.1434 C   0  0  0  0  0  0  0  0  0  0  0  0
   -2.5323    1.1026   -0.7427 C   0  0  0  0  0  0  0  0  0  0  0  0
    5.1665    0.0644    1.0450 H   0  0  0  0  0  0  0  0  0  0  0  0
    5.7513    0.0322   -0.6612 H   0  0  0  0  0  0  0  0  0  0  0  0
    4.8969    1.4936   -0.0361 H   0  0  0  0  0  0  0  0  0  0  0  0
    3.4310    0.0973   -1.5027 H   0  0  0  0  0  0  0  0  0  0  0  0
    3.6813   -1.3199   -0.4148 H   0  0  0  0  0  0  0  0  0  0  0  0
    2.6971    0.0229    1.5003 H   0  0  0  0  0  0  0  0  0  0  0  0
    2.3441    1.3688    0.3665 H   0  0  0  0  0  0  0  0  0  0  0  0
    1.2579   -1.5182    0.0491 H   0  0  0  0  0  0  0  0  0  0  0  0
    0.4101   -0.2024    0.9271 H   0  0  0  0  0  0  0  0  0  0  0  0
    0.3835    1.2016   -1.1715 H   0  0  0  0  0  0  0  0  0  0  0  0
    1.2112   -0.1232   -2.0558 H   0  0  0  0  0  0  0  0  0  0  0  0
   -0.7069   -1.6740   -1.5621 H   0  0  0  0  0  0  0  0  0  0  0  0
   -1.1281   -0.2768   -2.5761 H   0  0  0  0  0  0  0  0  0  0  0  0
   -1.9724   -2.8389    1.4301 H   0  0  0  0  0  0  0  0  0  0  0  0
   -3.6173   -1.1955    2.1871 H   0  0  0  0  0  0  0  0  0  0  0  0
   -5.2247    0.5491    2.8496 H   0  0  0  0  0  0  0  0  0  0  0  0
   -3.9932    2.4889    0.0108 H   0  0  0  0  0  0  0  0  0  0  0  0
   -2.2362    1.7587   -1.5520 H   0  0  0  0  0  0  0  0  0  0  0  0
  1  2  1  0
  2  3  1  0
  3  4  1  0
  4  5  1  0
  5  6  1  0
  6  7  1  0
  7  8  2  0
  8  9  1  0
  8 10  1  0
 10 11  2  0
 11 12  1  0
 11 13  1  0
 13 14  2  0
 14  7  1  0
  1 15  1  0
  1 16  1  0
  1 17  1  0
  2 18  1  0
  2 19  1  0
  3 20  1  0
  3 21  1  0
  4 22  1  0
  4 23  1  0
  5 24  1  0
  5 25  1  0
  6 26  1  0
  6 27  1  0
  9 28  1  0
 10 29  1  0
 12 30  1  0
 13 31  1  0
 14 32  1  0
M  END
$$$$
