
     RDKit          3D

 61 64  0  0  0  0  0  0  0  0999 V2000
   -1.9782    5.1948    2.0360 C   0  0  0  0  0  0  0  0  0  0  0  0
   -1.7639    3.7152    2.1585 C   0  0  0  0  0  0  0  0  0  0  0  0
   -2.0804    2.8643    1.0910 C   0  0  0  0  0  0  0  0  0  0  0  0
   -1.8943    1.4752    1.1981 C   0  0  0  0  0  0  0  0  0  0  0  0
   -2.1721    0.6106   -0.0036 C   0  0  0  0  0  0  0  0  0  0  0  0
   -1.4324    0.9284    2.4218 C   0  0  0  0  0  0  0  0  0  0  0  0
   -1.1129    1.7918    3.4825 C   0  0  0  0  0  0  0  0  0  0  0  0
   -1.2856    3.1705    3.3555 C   0  0  0  0  0  0  0  0  0  0  0  0
   -1.2800   -0.5279    2.6222 C   0  0  0  0  0  0  0  0  0  0  0  0
   -0.2956   -0.9694    3.2762 O   0  0  0  0  0  0  0  0  0  0  0  0
   -2.2470   -1.4075    2.1203 O   0  0  0  0  0  0  0  0  0  0  0  0
   -2.0612   -2.8193    2.0482 C   0  0  0  0  0  0  0  0  0  0  0  0
   -1.1194   -3.1408    0.9237 C   0  0  0  0  0  0  0  0  0  0  0  0
   -1.5499   -3.0009   -0.4023 C   0  0  0  0  0  0  0  0  0  0  0  0
   -0.6435   -3.1278   -1.4564 C   0  0  0  0  0  0  0  0  0  0  0  0
    0.7127   -3.4128   -1.2030 C   0  0  0  0  0  0  0  0  0  0  0  0
    1.1315   -3.5763    0.1297 C   0  0  0  0  0  0  0  0  0  0  0  0
    0.2245   -3.4414    1.1831 C   0  0  0  0  0  0  0  0  0  0  0  0
    1.7594   -3.3437   -2.2999 C   0  0  1  0  0  0  0  0  0  0  0  0
    1.2897   -3.9635   -3.6379 C   0  0  0  0  0  0  0  0  0  0  0  0
    2.3987   -4.1429   -4.5749 N   0  0  0  0  0  0  0  0  0  0  0  0
    2.1921   -1.9085   -2.4552 C   0  0  0  0  0  0  0  0  0  0  0  0
    3.4018   -1.6005   -2.2774 O   0  0  0  0  0  0  0  0  0  0  0  0
    1.2319   -0.8824   -2.7431 N   0  0  0  0  0  0  0  0  0  0  0  0
    1.1840    0.3611   -2.0250 C   0  0  0  0  0  0  0  0  0  0  0  0
    0.5908    1.4816   -2.6249 C   0  0  0  0  0  0  0  0  0  0  0  0
    0.5182    2.6991   -1.9425 C   0  0  0  0  0  0  0  0  0  0  0  0
    1.0224    2.8053   -0.6396 C   0  0  0  0  0  0  0  0  0  0  0  0
    0.9724    4.0186    0.0602 C   0  0  0  0  0  0  0  0  0  0  0  0
    1.4495    4.0920    1.3313 N   0  0  0  0  0  0  0  0  0  0  0  0
    1.9816    3.0111    1.9614 C   0  0  0  0  0  0  0  0  0  0  0  0
    2.0589    1.7813    1.3043 C   0  0  0  0  0  0  0  0  0  0  0  0
    1.5860    1.6736   -0.0102 C   0  0  0  0  0  0  0  0  0  0  0  0
    1.6651    0.4583   -0.7058 C   0  0  0  0  0  0  0  0  0  0  0  0
   -1.8654    5.5225    0.9805 H   0  0  0  0  0  0  0  0  0  0  0  0
   -1.2339    5.7491    2.6465 H   0  0  0  0  0  0  0  0  0  0  0  0
   -2.9994    5.4504    2.3878 H   0  0  0  0  0  0  0  0  0  0  0  0
   -2.4517    3.2891    0.1656 H   0  0  0  0  0  0  0  0  0  0  0  0
   -2.2422    1.2160   -0.9323 H   0  0  0  0  0  0  0  0  0  0  0  0
   -3.1308    0.0693    0.1350 H   0  0  0  0  0  0  0  0  0  0  0  0
   -1.3467   -0.1169   -0.1484 H   0  0  0  0  0  0  0  0  0  0  0  0
   -0.7505    1.3952    4.4232 H   0  0  0  0  0  0  0  0  0  0  0  0
   -1.0472    3.8139    4.1934 H   0  0  0  0  0  0  0  0  0  0  0  0
   -1.6909   -3.2127    3.0204 H   0  0  0  0  0  0  0  0  0  0  0  0
   -3.0435   -3.2982    1.8505 H   0  0  0  0  0  0  0  0  0  0  0  0
   -2.5790   -2.7398   -0.6174 H   0  0  0  0  0  0  0  0  0  0  0  0
   -0.9993   -2.9524   -2.4616 H   0  0  0  0  0  0  0  0  0  0  0  0
    2.1743   -3.7591    0.3581 H   0  0  0  0  0  0  0  0  0  0  0  0
    0.5806   -3.5294    2.2020 H   0  0  0  0  0  0  0  0  0  0  0  0
    2.6390   -3.9393   -1.9646 H   0  0  0  0  0  0  0  0  0  0  0  0
    0.8335   -4.9580   -3.4397 H   0  0  0  0  0  0  0  0  0  0  0  0
    0.5156   -3.3342   -4.1243 H   0  0  0  0  0  0  0  0  0  0  0  0
    2.8283   -3.2121   -4.7806 H   0  0  0  0  0  0  0  0  0  0  0  0
    3.1299   -4.7437   -4.1295 H   0  0  0  0  0  0  0  0  0  0  0  0
    0.5015   -1.0689   -3.4659 H   0  0  0  0  0  0  0  0  0  0  0  0
    0.1953    1.4131   -3.6304 H   0  0  0  0  0  0  0  0  0  0  0  0
    0.0685    3.5549   -2.4315 H   0  0  0  0  0  0  0  0  0  0  0  0
    0.5480    4.9036   -0.3971 H   0  0  0  0  0  0  0  0  0  0  0  0
    2.3443    3.1063    2.9760 H   0  0  0  0  0  0  0  0  0  0  0  0
    2.4853    0.9268    1.8159 H   0  0  0  0  0  0  0  0  0  0  0  0
    2.0817   -0.4130   -0.2149 H   0  0  0  0  0  0  0  0  0  0  0  0
  1  2  1  0
  2  3  2  0
  3  4  1  0
  4  5  1  0
  4  6  2  0
  6  7  1  0
  7  8  2  0
  6  9  1  0
  9 10  2  0
  9 11  1  0
 11 12  1  0
 12 13  1  0
 13 14  2  0
 14 15  1  0
 15 16  2  0
 16 17  1  0
 17 18  2  0
 16 19  1  0
 19 20  1  0
 20 21  1  0
 19 22  1  0
 22 23  2  0
 22 24  1  0
 24 25  1  0
 25 26  2  0
 26 27  1  0
 27 28  2  0
 28 29  1  0
 29 30  2  0
 30 31  1  0
 31 32  2  0
 32 33  1  0
 33 34  2  0
  8  2  1  0
 18 13  1  0
 34 25  1  0
 33 28  1  0
  1 35  1  0
  1 36  1  0
  1 37  1  0
  3 38  1  0
  5 39  1  0
  5 40  1  0
  5 41  1  0
  7 42  1  0
  8 43  1  0
 12 44  1  0
 12 45  1  0
 14 46  1  0
 15 47  1  0
 17 48  1  0
 18 49  1  0
 19 50  1  1
 20 51  1  0
 20 52  1  0
 21 53  1  0
 21 54  1  0
 24 55  1  0
 26 56  1  0
 27 57  1  0
 29 58  1  0
 31 59  1  0
 32 60  1  0
 34 61  1  0
M  END
$$$$
