
     RDKit          3D

 33 34  0  0  0  0  0  0  0  0999 V2000
    0.6328    0.5825    1.1524 N   0  0  0  0  0  0  0  0  0  0  0  0
    1.5122    1.6421    0.7445 C   0  0  0  0  0  0  0  0  0  0  0  0
    1.1669    2.4572   -0.1533 O   0  0  0  0  0  0  0  0  0  0  0  0
    2.8759    1.7583    1.3538 C   0  0  0  0  0  0  0  0  0  0  0  0
    3.8345    0.8369    0.6524 C   0  0  0  0  0  0  0  0  0  0  0  0
    4.5030    1.2523   -0.5097 C   0  0  0  0  0  0  0  0  0  0  0  0
    5.3431    0.4009   -1.1571 N   0  0  0  0  0  0  0  0  0  0  0  0
    5.5577   -0.8662   -0.7136 C   0  0  0  0  0  0  0  0  0  0  0  0
    4.9045   -1.3266    0.4312 C   0  0  0  0  0  0  0  0  0  0  0  0
    4.0363   -0.4725    1.1135 C   0  0  0  0  0  0  0  0  0  0  0  0
   -0.6713    0.3676    0.5979 C   0  0  0  0  0  0  0  0  0  0  0  0
   -1.2244    1.1404   -0.3636 N   0  0  0  0  0  0  0  0  0  0  0  0
   -2.4674    0.7076   -0.7033 C   0  0  0  0  0  0  0  0  0  0  0  0
   -2.9054   -0.4179   -0.0066 C   0  0  0  0  0  0  0  0  0  0  0  0
   -1.6944   -0.8818    1.0673 S   0  0  0  0  0  0  0  0  0  0  0  0
   -4.2283   -1.1165   -0.1698 C   0  0  0  0  0  0  0  0  0  0  0  0
   -5.3847   -0.1755    0.1811 C   0  0  0  0  0  0  0  0  0  0  0  0
   -4.3783   -1.6667   -1.5914 C   0  0  0  0  0  0  0  0  0  0  0  0
    0.9606   -0.0782    1.8923 H   0  0  0  0  0  0  0  0  0  0  0  0
    3.2340    2.8086    1.2800 H   0  0  0  0  0  0  0  0  0  0  0  0
    2.8231    1.5109    2.4363 H   0  0  0  0  0  0  0  0  0  0  0  0
    4.3544    2.2506   -0.9008 H   0  0  0  0  0  0  0  0  0  0  0  0
    6.2325   -1.5178   -1.2524 H   0  0  0  0  0  0  0  0  0  0  0  0
    5.0674   -2.3366    0.7844 H   0  0  0  0  0  0  0  0  0  0  0  0
    3.5227   -0.8301    1.9973 H   0  0  0  0  0  0  0  0  0  0  0  0
   -3.0592    1.2079   -1.4581 H   0  0  0  0  0  0  0  0  0  0  0  0
   -4.2628   -1.9768    0.5344 H   0  0  0  0  0  0  0  0  0  0  0  0
   -5.4201    0.6874   -0.5182 H   0  0  0  0  0  0  0  0  0  0  0  0
   -5.2640    0.2067    1.2175 H   0  0  0  0  0  0  0  0  0  0  0  0
   -6.3507   -0.7210    0.1227 H   0  0  0  0  0  0  0  0  0  0  0  0
   -5.3270   -2.2377   -1.6806 H   0  0  0  0  0  0  0  0  0  0  0  0
   -3.5366   -2.3534   -1.8250 H   0  0  0  0  0  0  0  0  0  0  0  0
   -4.3872   -0.8425   -2.3367 H   0  0  0  0  0  0  0  0  0  0  0  0
  1  2  1  0
  2  3  2  0
  2  4  1  0
  4  5  1  0
  5  6  2  0
  6  7  1  0
  7  8  2  0
  8  9  1  0
  9 10  2  0
  1 11  1  0
 11 12  2  0
 12 13  1  0
 13 14  2  0
 14 15  1  0
 14 16  1  0
 16 17  1  0
 16 18  1  0
 10  5  1  0
 15 11  1  0
  1 19  1  0
  4 20  1  0
  4 21  1  0
  6 22  1  0
  8 23  1  0
  9 24  1  0
 10 25  1  0
 13 26  1  0
 16 27  1  0
 17 28  1  0
 17 29  1  0
 17 30  1  0
 18 31  1  0
 18 32  1  0
 18 33  1  0
M  END
$$$$
