
     RDKit          3D

114118  0  0  0  0  0  0  0  0999 V2000
    5.4503   -2.5381   -0.5363 C   0  0  1  0  0  0  0  0  0  0  0  0
    6.3900   -3.5826   -0.1402 N   0  0  0  0  0  0  0  0  0  0  0  0
    7.5905   -3.1498   -0.2941 C   0  0  0  0  0  0  0  0  0  0  0  0
    8.7096   -3.9225   -0.0068 O   0  0  0  0  0  0  0  0  0  0  0  0
    7.6754   -1.8591   -0.7692 O   0  0  0  0  0  0  0  0  0  0  0  0
    6.3732   -1.3146   -0.9371 C   0  0  1  0  0  0  0  0  0  0  0  0
    6.2325   -0.8147   -2.3936 C   0  0  0  0  0  0  0  0  0  0  0  0
    6.1858   -0.1324    0.0658 C   0  0  1  0  0  0  0  0  0  0  0  0
    7.2398    0.9923   -0.1391 C   0  0  0  0  0  0  0  0  0  0  0  0
    7.6778    1.6290    1.1816 C   0  0  0  0  0  0  0  0  0  0  0  0
    4.8444    0.3628   -0.0541 O   0  0  0  0  0  0  0  0  0  0  0  0
    4.3295    1.4244    0.6984 C   0  0  0  0  0  0  0  0  0  0  0  0
    4.6734    2.6060    0.4270 O   0  0  0  0  0  0  0  0  0  0  0  0
    3.3122    1.1787    1.7848 C   0  0  2  0  0  0  0  0  0  0  0  0
    3.7583    0.0136    2.6719 C   0  0  0  0  0  0  0  0  0  0  0  0
    1.8852    0.9678    1.2887 C   0  0  0  0  0  0  0  0  0  0  0  0
    1.0037    0.9176    2.1340 O   0  0  0  0  0  0  0  0  0  0  0  0
    1.5024    0.8948   -0.1899 C   0  0  2  0  0  0  0  0  0  0  0  0
    1.3523    2.3221   -0.7519 C   0  0  0  0  0  0  0  0  0  0  0  0
    0.2330   -0.0226   -0.4656 C   0  0  1  0  0  0  0  0  0  0  0  0
   -0.9043    0.7899   -0.7653 O   0  0  0  0  0  0  0  0  0  0  0  0
   -1.6287    1.2045    0.3856 C   0  0  2  0  0  0  0  0  0  0  0  0
   -2.1132    0.0787    1.0908 O   0  0  0  0  0  0  0  0  0  0  0  0
   -2.7038    0.4917    2.3021 C   0  0  2  0  0  0  0  0  0  0  0  0
   -2.9720   -0.7466    3.1561 C   0  0  0  0  0  0  0  0  0  0  0  0
   -4.0124    1.2313    2.0061 C   0  0  0  0  0  0  0  0  0  0  0  0
   -3.8149    2.4487    1.0631 C   0  0  2  0  0  0  0  0  0  0  0  0
   -5.1425    2.8832    0.5199 N   0  0  0  0  0  0  0  0  0  0  0  0
   -5.0303    4.0088   -0.4284 C   0  0  0  0  0  0  0  0  0  0  0  0
   -6.0760    3.2695    1.5992 C   0  0  0  0  0  0  0  0  0  0  0  0
   -2.8126    2.0807   -0.0857 C   0  0  1  0  0  0  0  0  0  0  0  0
   -2.3032    3.2326   -0.7136 O   0  0  0  0  0  0  0  0  0  0  0  0
    0.3810   -1.1174   -1.6259 C   0  0  1  0  0  0  0  0  0  0  0  0
    1.3516   -0.6632   -2.7428 C   0  0  0  0  0  0  0  0  0  0  0  0
    0.8579   -2.5328   -1.1118 C   0  0  0  0  0  0  0  0  0  0  0  0
    2.1910   -2.5852   -0.3079 C   0  0  1  0  0  0  0  0  0  0  0  0
    1.9486   -2.9533    1.1660 C   0  0  0  0  0  0  0  0  0  0  0  0
    3.1628   -3.5729   -0.9262 C   0  0  0  0  0  0  0  0  0  0  0  0
    2.9258   -4.7717   -0.8554 O   0  0  0  0  0  0  0  0  0  0  0  0
    4.4325   -3.0748   -1.5999 C   0  0  2  0  0  0  0  0  0  0  0  0
    5.0267   -4.1534   -2.5315 C   0  0  0  0  0  0  0  0  0  0  0  0
   -0.8600   -1.2613   -2.3274 O   0  0  0  0  0  0  0  0  0  0  0  0
   -1.9270   -1.8348   -1.5886 C   0  0  0  0  0  0  0  0  0  0  0  0
   -3.1809   -1.0730   -1.8862 C   0  0  0  0  0  0  0  0  0  0  0  0
   -4.3131   -1.3142   -1.2140 C   0  0  0  0  0  0  0  0  0  0  0  0
   -5.5205   -0.4537   -1.3016 C   0  0  0  0  0  0  0  0  0  0  0  0
   -6.4657   -0.5149   -0.2664 C   0  0  0  0  0  0  0  0  0  0  0  0
   -7.5509    0.3684   -0.2464 C   0  0  0  0  0  0  0  0  0  0  0  0
   -8.4730    0.3656    0.8109 C   0  0  0  0  0  0  0  0  0  0  0  0
   -9.5328    1.2783    0.8153 C   0  0  0  0  0  0  0  0  0  0  0  0
   -9.6785    2.1924   -0.2332 C   0  0  0  0  0  0  0  0  0  0  0  0
   -8.7652    2.1990   -1.2921 C   0  0  0  0  0  0  0  0  0  0  0  0
   -7.6998    1.2919   -1.3023 C   0  0  0  0  0  0  0  0  0  0  0  0
   -6.8031    1.3036   -2.3223 N   0  0  0  0  0  0  0  0  0  0  0  0
   -5.7358    0.4626   -2.3509 C   0  0  0  0  0  0  0  0  0  0  0  0
    4.8837   -2.2645    0.3784 H   0  0  0  0  0  0  0  0  0  0  0  0
    8.6115   -4.8693    0.3398 H   0  0  0  0  0  0  0  0  0  0  0  0
    5.2487   -0.3268   -2.5575 H   0  0  0  0  0  0  0  0  0  0  0  0
    7.0200   -0.0695   -2.6286 H   0  0  0  0  0  0  0  0  0  0  0  0
    6.3629   -1.6381   -3.1195 H   0  0  0  0  0  0  0  0  0  0  0  0
    6.3130   -0.5483    1.0911 H   0  0  0  0  0  0  0  0  0  0  0  0
    8.1588    0.5918   -0.6177 H   0  0  0  0  0  0  0  0  0  0  0  0
    6.8383    1.7744   -0.8185 H   0  0  0  0  0  0  0  0  0  0  0  0
    6.8122    2.0244    1.7493 H   0  0  0  0  0  0  0  0  0  0  0  0
    8.2028    0.8779    1.8095 H   0  0  0  0  0  0  0  0  0  0  0  0
    8.3777    2.4661    0.9759 H   0  0  0  0  0  0  0  0  0  0  0  0
    3.2958    2.0848    2.4311 H   0  0  0  0  0  0  0  0  0  0  0  0
    3.0524   -0.1249    3.5184 H   0  0  0  0  0  0  0  0  0  0  0  0
    4.7655    0.2188    3.0942 H   0  0  0  0  0  0  0  0  0  0  0  0
    3.8034   -0.9249    2.0871 H   0  0  0  0  0  0  0  0  0  0  0  0
    2.3754    0.4829   -0.7040 H   0  0  0  0  0  0  0  0  0  0  0  0
    0.6515    2.9276   -0.1429 H   0  0  0  0  0  0  0  0  0  0  0  0
    2.3308    2.8436   -0.7537 H   0  0  0  0  0  0  0  0  0  0  0  0
    0.9863    2.2994   -1.7985 H   0  0  0  0  0  0  0  0  0  0  0  0
    0.0500   -0.6253    0.4494 H   0  0  0  0  0  0  0  0  0  0  0  0
   -0.9725    1.8281    1.0299 H   0  0  0  0  0  0  0  0  0  0  0  0
   -2.0209    1.1508    2.8890 H   0  0  0  0  0  0  0  0  0  0  0  0
   -3.6457   -1.4504    2.6212 H   0  0  0  0  0  0  0  0  0  0  0  0
   -3.4395   -0.4568    4.1214 H   0  0  0  0  0  0  0  0  0  0  0  0
   -2.0143   -1.2669    3.3707 H   0  0  0  0  0  0  0  0  0  0  0  0
   -4.7279    0.5228    1.5413 H   0  0  0  0  0  0  0  0  0  0  0  0
   -4.4368    1.5735    2.9748 H   0  0  0  0  0  0  0  0  0  0  0  0
   -3.3669    3.2696    1.6694 H   0  0  0  0  0  0  0  0  0  0  0  0
   -4.4021    4.8266   -0.0113 H   0  0  0  0  0  0  0  0  0  0  0  0
   -4.6167    3.6547   -1.3942 H   0  0  0  0  0  0  0  0  0  0  0  0
   -6.0297    4.4230   -0.6856 H   0  0  0  0  0  0  0  0  0  0  0  0
   -6.3970    2.3781    2.1751 H   0  0  0  0  0  0  0  0  0  0  0  0
   -5.6150    4.0166    2.2824 H   0  0  0  0  0  0  0  0  0  0  0  0
   -7.0169    3.6926    1.1846 H   0  0  0  0  0  0  0  0  0  0  0  0
   -3.3758    1.5034   -0.8457 H   0  0  0  0  0  0  0  0  0  0  0  0
   -1.8362    3.7721   -0.0232 H   0  0  0  0  0  0  0  0  0  0  0  0
    1.2507   -1.3324   -3.6250 H   0  0  0  0  0  0  0  0  0  0  0  0
    1.1025    0.3623   -3.0836 H   0  0  0  0  0  0  0  0  0  0  0  0
    2.4168   -0.7061   -2.4543 H   0  0  0  0  0  0  0  0  0  0  0  0
    0.0699   -3.0067   -0.4940 H   0  0  0  0  0  0  0  0  0  0  0  0
    0.9266   -3.1994   -2.0013 H   0  0  0  0  0  0  0  0  0  0  0  0
    2.6761   -1.5980   -0.3078 H   0  0  0  0  0  0  0  0  0  0  0  0
    1.3980   -3.9151    1.2485 H   0  0  0  0  0  0  0  0  0  0  0  0
    1.3592   -2.1606    1.6713 H   0  0  0  0  0  0  0  0  0  0  0  0
    2.9135   -3.0651    1.7034 H   0  0  0  0  0  0  0  0  0  0  0  0
    4.1050   -2.2453   -2.2510 H   0  0  0  0  0  0  0  0  0  0  0  0
    5.9749   -3.8145   -2.9920 H   0  0  0  0  0  0  0  0  0  0  0  0
    4.3085   -4.3846   -3.3472 H   0  0  0  0  0  0  0  0  0  0  0  0
    5.2377   -5.0907   -1.9734 H   0  0  0  0  0  0  0  0  0  0  0  0
   -1.7685   -1.8203   -0.4910 H   0  0  0  0  0  0  0  0  0  0  0  0
   -2.0615   -2.8895   -1.9095 H   0  0  0  0  0  0  0  0  0  0  0  0
   -3.1121   -0.2499   -2.5833 H   0  0  0  0  0  0  0  0  0  0  0  0
   -4.3128   -2.1119   -0.4792 H   0  0  0  0  0  0  0  0  0  0  0  0
   -6.3292   -1.2173    0.5486 H   0  0  0  0  0  0  0  0  0  0  0  0
   -8.3698   -0.3324    1.6330 H   0  0  0  0  0  0  0  0  0  0  0  0
  -10.2412    1.2785    1.6335 H   0  0  0  0  0  0  0  0  0  0  0  0
  -10.4996    2.8975   -0.2243 H   0  0  0  0  0  0  0  0  0  0  0  0
   -8.8834    2.9125   -2.0981 H   0  0  0  0  0  0  0  0  0  0  0  0
   -5.0650    0.5205   -3.1948 H   0  0  0  0  0  0  0  0  0  0  0  0
  1  2  1  0
  2  3  2  0
  3  4  1  0
  3  5  1  0
  5  6  1  0
  6  7  1  6
  6  8  1  0
  8  9  1  0
  9 10  1  0
  8 11  1  0
 11 12  1  0
 12 13  2  0
 12 14  1  0
 14 15  1  0
 14 16  1  0
 16 17  2  0
 16 18  1  0
 18 19  1  0
 18 20  1  0
 20 21  1  0
 21 22  1  0
 22 23  1  0
 23 24  1  0
 24 25  1  0
 24 26  1  0
 26 27  1  0
 27 28  1  0
 28 29  1  0
 28 30  1  0
 27 31  1  0
 31 32  1  0
 20 33  1  0
 33 34  1  0
 33 35  1  0
 35 36  1  0
 36 37  1  0
 36 38  1  0
 38 39  2  0
 38 40  1  0
 40 41  1  0
 33 42  1  6
 42 43  1  0
 43 44  1  0
 44 45  2  3
 45 46  1  0
 46 47  2  0
 47 48  1  0
 48 49  2  0
 49 50  1  0
 50 51  2  0
 51 52  1  0
 52 53  2  0
 53 54  1  0
 54 55  2  0
  6  1  1  0
 31 22  1  0
 55 46  1  0
 40  1  1  0
 53 48  1  0
  1 56  1  1
  4 57  1  0
  7 58  1  0
  7 59  1  0
  7 60  1  0
  8 61  1  1
  9 62  1  0
  9 63  1  0
 10 64  1  0
 10 65  1  0
 10 66  1  0
 14 67  1  1
 15 68  1  0
 15 69  1  0
 15 70  1  0
 18 71  1  6
 19 72  1  0
 19 73  1  0
 19 74  1  0
 20 75  1  1
 22 76  1  1
 24 77  1  1
 25 78  1  0
 25 79  1  0
 25 80  1  0
 26 81  1  0
 26 82  1  0
 27 83  1  1
 29 84  1  0
 29 85  1  0
 29 86  1  0
 30 87  1  0
 30 88  1  0
 30 89  1  0
 31 90  1  6
 32 91  1  0
 34 92  1  0
 34 93  1  0
 34 94  1  0
 35 95  1  0
 35 96  1  0
 36 97  1  1
 37 98  1  0
 37 99  1  0
 37100  1  0
 40101  1  6
 41102  1  0
 41103  1  0
 41104  1  0
 43105  1  0
 43106  1  0
 44107  1  0
 45108  1  0
 47109  1  0
 49110  1  0
 50111  1  0
 51112  1  0
 52113  1  0
 55114  1  0
M  END
$$$$
