
     RDKit          3D

 93 97  0  0  0  0  0  0  0  0999 V2000
   -5.7552   -2.2381    0.4565 N   0  0  0  0  0  0  0  0  0  0  0  0
   -4.6068   -1.5398    0.9386 C   0  0  0  0  0  0  0  0  0  0  0  0
   -4.4548   -1.3844    2.1805 O   0  0  0  0  0  0  0  0  0  0  0  0
   -3.5521   -1.0525   -0.0278 C   0  0  2  0  0  0  0  0  0  0  0  0
   -2.4160   -2.0858   -0.1812 C   0  0  0  0  0  0  0  0  0  0  0  0
   -1.7408   -2.4568    1.1176 C   0  0  0  0  0  0  0  0  0  0  0  0
   -1.1178   -1.5946    2.0187 C   0  0  0  0  0  0  0  0  0  0  0  0
   -0.5496   -2.2889    3.0293 N   0  0  0  0  0  0  0  0  0  0  0  0
   -0.7960   -3.5838    2.7740 C   0  0  0  0  0  0  0  0  0  0  0  0
   -0.3865   -4.6828    3.5278 C   0  0  0  0  0  0  0  0  0  0  0  0
   -0.7258   -5.9644    3.0600 C   0  0  0  0  0  0  0  0  0  0  0  0
   -1.4592   -6.1174    1.8633 C   0  0  0  0  0  0  0  0  0  0  0  0
   -1.8613   -4.9904    1.1236 C   0  0  0  0  0  0  0  0  0  0  0  0
   -1.5130   -3.7294    1.6129 C   0  0  0  0  0  0  0  0  0  0  0  0
   -3.0335    0.2664    0.3615 N   0  0  0  0  0  0  0  0  0  0  0  0
   -2.3483    1.1254   -0.5643 C   0  0  0  0  0  0  0  0  0  0  0  0
   -2.2238    0.7796   -1.7711 O   0  0  0  0  0  0  0  0  0  0  0  0
   -1.8527    2.4805   -0.1115 C   0  0  2  0  0  0  0  0  0  0  0  0
   -2.9535    3.5676   -0.2455 C   0  0  0  0  0  0  0  0  0  0  0  0
   -3.7656    3.5987   -1.5620 C   0  0  0  0  0  0  0  0  0  0  0  0
   -3.0097    4.1063   -2.8031 C   0  0  0  0  0  0  0  0  0  0  0  0
   -2.3949    5.4740   -2.6188 C   0  0  0  0  0  0  0  0  0  0  0  0
   -3.2003    6.5822   -2.2999 C   0  0  0  0  0  0  0  0  0  0  0  0
   -2.6285    7.8480   -2.1396 C   0  0  0  0  0  0  0  0  0  0  0  0
   -1.2530    8.0223   -2.3104 C   0  0  0  0  0  0  0  0  0  0  0  0
   -0.4482    6.9328   -2.6517 C   0  0  0  0  0  0  0  0  0  0  0  0
   -1.0156    5.6655   -2.8143 C   0  0  0  0  0  0  0  0  0  0  0  0
   -0.5146    2.8962   -0.7714 C   0  0  0  0  0  0  0  0  0  0  0  0
    0.9324    2.0286   -0.0628 P   0  0  0  0  0  5  0  0  0  0  0  0
    0.8734    2.1300    1.6269 O   0  0  0  0  0  0  0  0  0  0  0  0
    2.1886    2.7318   -0.5228 O   0  0  0  0  0  0  0  0  0  0  0  0
    0.9886    0.2670   -0.5786 C   0  0  1  0  0  0  0  0  0  0  0  0
    1.1216    0.0920   -2.1087 C   0  0  0  0  0  0  0  0  0  0  0  0
    2.4185    0.6147   -2.6785 C   0  0  0  0  0  0  0  0  0  0  0  0
    3.6036   -0.1308   -2.5547 C   0  0  0  0  0  0  0  0  0  0  0  0
    4.8029    0.3582   -3.0813 C   0  0  0  0  0  0  0  0  0  0  0  0
    4.8280    1.5895   -3.7412 C   0  0  0  0  0  0  0  0  0  0  0  0
    3.6527    2.3321   -3.8801 C   0  0  0  0  0  0  0  0  0  0  0  0
    2.4510    1.8468   -3.3558 C   0  0  0  0  0  0  0  0  0  0  0  0
    2.0514   -0.4430    0.1380 N   0  0  0  0  0  0  0  0  0  0  0  0
    2.0253   -1.8632    0.3245 C   0  0  0  0  0  0  0  0  0  0  0  0
    1.1955   -2.5746   -0.3061 O   0  0  0  0  0  0  0  0  0  0  0  0
    2.9171   -2.4510    1.2242 O   0  0  0  0  0  0  0  0  0  0  0  0
    2.9383   -3.8519    1.4753 C   0  0  0  0  0  0  0  0  0  0  0  0
    3.8699   -4.1363    2.6156 C   0  0  0  0  0  0  0  0  0  0  0  0
    5.1645   -4.6267    2.3773 C   0  0  0  0  0  0  0  0  0  0  0  0
    6.0341   -4.8641    3.4467 C   0  0  0  0  0  0  0  0  0  0  0  0
    5.6213   -4.6045    4.7567 C   0  0  0  0  0  0  0  0  0  0  0  0
    4.3397   -4.1023    4.9994 C   0  0  0  0  0  0  0  0  0  0  0  0
    3.4674   -3.8633    3.9331 C   0  0  0  0  0  0  0  0  0  0  0  0
   -6.4754   -2.5909    1.1251 H   0  0  0  0  0  0  0  0  0  0  0  0
   -5.8848   -2.4156   -0.5642 H   0  0  0  0  0  0  0  0  0  0  0  0
   -4.0429   -0.9442   -1.0203 H   0  0  0  0  0  0  0  0  0  0  0  0
   -1.6505   -1.7041   -0.8870 H   0  0  0  0  0  0  0  0  0  0  0  0
   -2.8429   -2.9957   -0.6520 H   0  0  0  0  0  0  0  0  0  0  0  0
   -1.0687   -0.5202    1.9360 H   0  0  0  0  0  0  0  0  0  0  0  0
   -0.0120   -1.8951    3.8332 H   0  0  0  0  0  0  0  0  0  0  0  0
    0.1800   -4.5561    4.4410 H   0  0  0  0  0  0  0  0  0  0  0  0
   -0.4204   -6.8388    3.6195 H   0  0  0  0  0  0  0  0  0  0  0  0
   -1.7129   -7.1089    1.5117 H   0  0  0  0  0  0  0  0  0  0  0  0
   -2.4205   -5.1095    0.2058 H   0  0  0  0  0  0  0  0  0  0  0  0
   -3.1936    0.6216    1.3314 H   0  0  0  0  0  0  0  0  0  0  0  0
   -1.6520    2.4091    0.9795 H   0  0  0  0  0  0  0  0  0  0  0  0
   -3.6881    3.3876    0.5708 H   0  0  0  0  0  0  0  0  0  0  0  0
   -2.5285    4.5729   -0.0377 H   0  0  0  0  0  0  0  0  0  0  0  0
   -4.1845    2.5940   -1.7792 H   0  0  0  0  0  0  0  0  0  0  0  0
   -4.6477    4.2545   -1.3992 H   0  0  0  0  0  0  0  0  0  0  0  0
   -2.2515    3.3591   -3.1096 H   0  0  0  0  0  0  0  0  0  0  0  0
   -3.7302    4.1660   -3.6471 H   0  0  0  0  0  0  0  0  0  0  0  0
   -4.2696    6.4689   -2.1772 H   0  0  0  0  0  0  0  0  0  0  0  0
   -3.2530    8.6951   -1.8866 H   0  0  0  0  0  0  0  0  0  0  0  0
   -0.8122    9.0030   -2.1867 H   0  0  0  0  0  0  0  0  0  0  0  0
    0.6157    7.0708   -2.7953 H   0  0  0  0  0  0  0  0  0  0  0  0
   -0.3775    4.8376   -3.0949 H   0  0  0  0  0  0  0  0  0  0  0  0
   -0.5260    2.7230   -1.8629 H   0  0  0  0  0  0  0  0  0  0  0  0
   -0.3426    3.9794   -0.6014 H   0  0  0  0  0  0  0  0  0  0  0  0
    0.3744    1.3281    1.9198 H   0  0  0  0  0  0  0  0  0  0  0  0
    0.0202   -0.1696   -0.2721 H   0  0  0  0  0  0  0  0  0  0  0  0
    0.2636    0.5849   -2.6108 H   0  0  0  0  0  0  0  0  0  0  0  0
    1.0310   -0.9854   -2.3627 H   0  0  0  0  0  0  0  0  0  0  0  0
    3.5991   -1.0917   -2.0563 H   0  0  0  0  0  0  0  0  0  0  0  0
    5.7128   -0.2191   -2.9798 H   0  0  0  0  0  0  0  0  0  0  0  0
    5.7575    1.9665   -4.1480 H   0  0  0  0  0  0  0  0  0  0  0  0
    3.6725    3.2844   -4.3940 H   0  0  0  0  0  0  0  0  0  0  0  0
    1.5492    2.4356   -3.4694 H   0  0  0  0  0  0  0  0  0  0  0  0
    2.7962    0.0987    0.6317 H   0  0  0  0  0  0  0  0  0  0  0  0
    3.2595   -4.3896    0.5566 H   0  0  0  0  0  0  0  0  0  0  0  0
    1.9180   -4.2048    1.7384 H   0  0  0  0  0  0  0  0  0  0  0  0
    5.5002   -4.8254    1.3670 H   0  0  0  0  0  0  0  0  0  0  0  0
    7.0291   -5.2466    3.2596 H   0  0  0  0  0  0  0  0  0  0  0  0
    6.2960   -4.7877    5.5829 H   0  0  0  0  0  0  0  0  0  0  0  0
    4.0235   -3.8945    6.0134 H   0  0  0  0  0  0  0  0  0  0  0  0
    2.4812   -3.4630    4.1323 H   0  0  0  0  0  0  0  0  0  0  0  0
  1  2  1  0
  2  3  2  0
  2  4  1  0
  4  5  1  0
  5  6  1  0
  6  7  2  0
  7  8  1  0
  8  9  1  0
  9 10  2  0
 10 11  1  0
 11 12  2  0
 12 13  1  0
 13 14  2  0
  4 15  1  0
 15 16  1  0
 16 17  2  0
 16 18  1  0
 18 19  1  0
 19 20  1  0
 20 21  1  0
 21 22  1  0
 22 23  2  0
 23 24  1  0
 24 25  2  0
 25 26  1  0
 26 27  2  0
 18 28  1  0
 28 29  1  0
 29 30  1  0
 29 31  2  0
 29 32  1  0
 32 33  1  0
 33 34  1  0
 34 35  2  0
 35 36  1  0
 36 37  2  0
 37 38  1  0
 38 39  2  0
 32 40  1  0
 40 41  1  0
 41 42  2  0
 41 43  1  0
 43 44  1  0
 44 45  1  0
 45 46  2  0
 46 47  1  0
 47 48  2  0
 48 49  1  0
 49 50  2  0
 14  6  1  0
 27 22  1  0
 39 34  1  0
 50 45  1  0
 14  9  1  0
  1 51  1  0
  1 52  1  0
  4 53  1  6
  5 54  1  0
  5 55  1  0
  7 56  1  0
  8 57  1  0
 10 58  1  0
 11 59  1  0
 12 60  1  0
 13 61  1  0
 15 62  1  0
 18 63  1  1
 19 64  1  0
 19 65  1  0
 20 66  1  0
 20 67  1  0
 21 68  1  0
 21 69  1  0
 23 70  1  0
 24 71  1  0
 25 72  1  0
 26 73  1  0
 27 74  1  0
 28 75  1  0
 28 76  1  0
 30 77  1  0
 32 78  1  1
 33 79  1  0
 33 80  1  0
 35 81  1  0
 36 82  1  0
 37 83  1  0
 38 84  1  0
 39 85  1  0
 40 86  1  0
 44 87  1  0
 44 88  1  0
 46 89  1  0
 47 90  1  0
 48 91  1  0
 49 92  1  0
 50 93  1  0
M  END
$$$$
