
     RDKit          3D

 82 88  0  0  0  0  0  0  0  0999 V2000
    1.7948    4.7457   -0.1587 C   0  0  0  0  0  0  0  0  0  0  0  0
    1.1574    3.7516    0.6124 O   0  0  0  0  0  0  0  0  0  0  0  0
    1.8660    2.5233    0.5425 C   0  0  2  0  0  0  0  0  0  0  0  0
    1.3056    1.6428   -0.6103 C   0  0  1  0  0  0  0  0  0  0  0  0
    2.0803    1.8829   -1.8326 N   0  0  0  0  0  0  0  0  0  0  0  0
    1.2951    0.1391   -0.2221 C   0  0  1  0  0  0  0  0  0  0  0  0
    1.2274   -0.6662   -1.3864 O   0  0  0  0  0  0  0  0  0  0  0  0
    1.0464   -2.0438   -1.0730 C   0  0  1  0  0  0  0  0  0  0  0  0
   -0.0941   -2.6277   -1.9414 C   0  0  2  0  0  0  0  0  0  0  0  0
   -1.2611   -1.8096   -1.8191 O   0  0  0  0  0  0  0  0  0  0  0  0
   -1.4653   -0.5899   -2.4840 C   0  0  0  0  0  0  0  0  0  0  0  0
   -1.1722   -0.4794   -3.8497 C   0  0  0  0  0  0  0  0  0  0  0  0
   -1.3335    0.7303   -4.5102 C   0  0  0  0  0  0  0  0  0  0  0  0
   -1.7936    1.8510   -3.8266 C   0  0  0  0  0  0  0  0  0  0  0  0
   -2.1265    1.7810   -2.4561 C   0  0  0  0  0  0  0  0  0  0  0  0
   -1.9692    0.5351   -1.7765 C   0  0  0  0  0  0  0  0  0  0  0  0
   -2.2431    0.4631   -0.3911 C   0  0  0  0  0  0  0  0  0  0  0  0
   -2.6089    1.6183    0.3145 C   0  0  0  0  0  0  0  0  0  0  0  0
   -2.7659    2.8534   -0.3412 C   0  0  0  0  0  0  0  0  0  0  0  0
   -3.1243    3.9735    0.4517 C   0  0  0  0  0  0  0  0  0  0  0  0
   -3.2845    5.1130   -0.0609 O   0  0  0  0  0  0  0  0  0  0  0  0
   -3.2911    3.8454    1.7645 O   0  0  0  0  0  0  0  0  0  0  0  0
   -3.1423    2.6931    2.4058 C   0  0  0  0  0  0  0  0  0  0  0  0
   -2.8006    1.5277    1.7007 C   0  0  0  0  0  0  0  0  0  0  0  0
   -2.6361    0.2949    2.3727 C   0  0  0  0  0  0  0  0  0  0  0  0
   -2.8088    0.2566    3.7890 C   0  0  0  0  0  0  0  0  0  0  0  0
   -2.6272   -1.0000    4.6034 C   0  0  0  0  0  0  0  0  0  0  0  0
   -3.1536    1.4389    4.4705 C   0  0  0  0  0  0  0  0  0  0  0  0
   -3.3212    2.6414    3.7856 C   0  0  0  0  0  0  0  0  0  0  0  0
   -2.3004   -0.8255    1.5740 C   0  0  0  0  0  0  0  0  0  0  0  0
   -2.1521   -1.9713    2.0730 O   0  0  0  0  0  0  0  0  0  0  0  0
   -2.1257   -0.6892    0.2643 O   0  0  0  0  0  0  0  0  0  0  0  0
   -2.5644    2.9304   -1.7394 C   0  0  0  0  0  0  0  0  0  0  0  0
   -2.8062    4.1529   -2.3803 O   0  0  0  0  0  0  0  0  0  0  0  0
   -0.4515   -3.9364   -1.5245 O   0  0  0  0  0  0  0  0  0  0  0  0
    0.6406   -4.8126   -1.2534 C   0  0  2  0  0  0  0  0  0  0  0  0
    0.6069   -5.2002    0.2319 C   0  0  0  0  0  0  0  0  0  0  0  0
    2.0350   -4.3223   -1.7463 C   0  0  2  0  0  0  0  0  0  0  0  0
    3.0390   -5.2130   -1.3245 O   0  0  0  0  0  0  0  0  0  0  0  0
    2.3642   -2.8516   -1.3195 C   0  0  1  0  0  0  0  0  0  0  0  0
    3.2089   -2.1970   -2.4366 C   0  0  0  0  0  0  0  0  0  0  0  0
    3.1574   -2.8374   -0.1539 O   0  0  0  0  0  0  0  0  0  0  0  0
    2.4653   -0.1653    0.5141 O   0  0  0  0  0  0  0  0  0  0  0  0
    2.4323    0.4045    1.8192 C   0  0  2  0  0  0  0  0  0  0  0  0
    1.8712   -0.6081    2.8258 C   0  0  0  0  0  0  0  0  0  0  0  0
    1.7367    1.8011    1.8982 C   0  0  2  0  0  0  0  0  0  0  0  0
    0.3791    1.6657    2.2460 O   0  0  0  0  0  0  0  0  0  0  0  0
    1.8659    4.4488   -1.2269 H   0  0  0  0  0  0  0  0  0  0  0  0
    2.8016    4.9826    0.2503 H   0  0  0  0  0  0  0  0  0  0  0  0
    1.1871    5.6724   -0.1103 H   0  0  0  0  0  0  0  0  0  0  0  0
    2.9638    2.6763    0.3902 H   0  0  0  0  0  0  0  0  0  0  0  0
    0.2556    1.9500   -0.8012 H   0  0  0  0  0  0  0  0  0  0  0  0
    1.5633    1.4843   -2.6500 H   0  0  0  0  0  0  0  0  0  0  0  0
    3.0024    1.3930   -1.7643 H   0  0  0  0  0  0  0  0  0  0  0  0
    0.3839   -0.0420    0.3909 H   0  0  0  0  0  0  0  0  0  0  0  0
    0.7206   -2.1970   -0.0166 H   0  0  0  0  0  0  0  0  0  0  0  0
    0.2212   -2.6744   -3.0044 H   0  0  0  0  0  0  0  0  0  0  0  0
   -0.8303   -1.3338   -4.4163 H   0  0  0  0  0  0  0  0  0  0  0  0
   -1.0907    0.8035   -5.5628 H   0  0  0  0  0  0  0  0  0  0  0  0
   -1.8521    2.7645   -4.3942 H   0  0  0  0  0  0  0  0  0  0  0  0
   -3.3665   -1.7659    4.2886 H   0  0  0  0  0  0  0  0  0  0  0  0
   -1.5941   -1.3868    4.4770 H   0  0  0  0  0  0  0  0  0  0  0  0
   -2.7808   -0.8161    5.6881 H   0  0  0  0  0  0  0  0  0  0  0  0
   -3.2923    1.4349    5.5447 H   0  0  0  0  0  0  0  0  0  0  0  0
   -3.5843    3.5382    4.3326 H   0  0  0  0  0  0  0  0  0  0  0  0
   -2.8426    4.2906   -3.3791 H   0  0  0  0  0  0  0  0  0  0  0  0
    0.4360   -5.7533   -1.8109 H   0  0  0  0  0  0  0  0  0  0  0  0
   -0.3493   -5.7205    0.4529 H   0  0  0  0  0  0  0  0  0  0  0  0
    1.4355   -5.8932    0.4868 H   0  0  0  0  0  0  0  0  0  0  0  0
    0.6573   -4.3093    0.8871 H   0  0  0  0  0  0  0  0  0  0  0  0
    1.9729   -4.3705   -2.8611 H   0  0  0  0  0  0  0  0  0  0  0  0
    3.8132   -5.0896   -1.9329 H   0  0  0  0  0  0  0  0  0  0  0  0
    3.5751   -1.1977   -2.1180 H   0  0  0  0  0  0  0  0  0  0  0  0
    4.1025   -2.8155   -2.6651 H   0  0  0  0  0  0  0  0  0  0  0  0
    2.6145   -2.0767   -3.3677 H   0  0  0  0  0  0  0  0  0  0  0  0
    2.6665   -3.3048    0.5680 H   0  0  0  0  0  0  0  0  0  0  0  0
    3.4939    0.5697    2.1070 H   0  0  0  0  0  0  0  0  0  0  0  0
    1.9069   -0.1862    3.8527 H   0  0  0  0  0  0  0  0  0  0  0  0
    0.8218   -0.8758    2.5811 H   0  0  0  0  0  0  0  0  0  0  0  0
    2.4817   -1.5356    2.8031 H   0  0  0  0  0  0  0  0  0  0  0  0
    2.2591    2.4038    2.6794 H   0  0  0  0  0  0  0  0  0  0  0  0
    0.0947    2.5221    2.6598 H   0  0  0  0  0  0  0  0  0  0  0  0
  1  2  1  0
  2  3  1  0
  3  4  1  0
  4  5  1  0
  4  6  1  0
  6  7  1  0
  7  8  1  0
  8  9  1  0
  9 10  1  0
 10 11  1  0
 11 12  2  0
 12 13  1  0
 13 14  2  0
 14 15  1  0
 15 16  2  0
 16 17  1  0
 17 18  2  0
 18 19  1  0
 19 20  1  0
 20 21  2  0
 20 22  1  0
 22 23  1  0
 23 24  2  0
 24 25  1  0
 25 26  2  0
 26 27  1  0
 26 28  1  0
 28 29  2  0
 25 30  1  0
 30 31  2  0
 30 32  1  0
 19 33  2  0
 33 34  1  0
  9 35  1  0
 35 36  1  0
 36 37  1  0
 36 38  1  0
 38 39  1  0
 38 40  1  0
 40 41  1  0
 40 42  1  1
  6 43  1  0
 43 44  1  0
 44 45  1  0
 44 46  1  0
 46 47  1  0
 46  3  1  0
 40  8  1  0
 16 11  1  0
 32 17  1  0
 33 15  1  0
 24 18  1  0
 29 23  1  0
  1 48  1  0
  1 49  1  0
  1 50  1  0
  3 51  1  6
  4 52  1  6
  5 53  1  0
  5 54  1  0
  6 55  1  1
  8 56  1  1
  9 57  1  6
 12 58  1  0
 13 59  1  0
 14 60  1  0
 27 61  1  0
 27 62  1  0
 27 63  1  0
 28 64  1  0
 29 65  1  0
 34 66  1  0
 36 67  1  6
 37 68  1  0
 37 69  1  0
 37 70  1  0
 38 71  1  6
 39 72  1  0
 41 73  1  0
 41 74  1  0
 41 75  1  0
 42 76  1  0
 44 77  1  1
 45 78  1  0
 45 79  1  0
 45 80  1  0
 46 81  1  1
 47 82  1  0
M  END
$$$$
