
     RDKit          3D

 91 90  0  0  0  0  0  0  0  0999 V2000
   12.2743   -0.1300   -1.4931 C   0  0  0  0  0  0  0  0  0  0  0  0
   12.2415   -1.5056   -2.1592 C   0  0  0  0  0  0  0  0  0  0  0  0
   11.0451   -1.6684   -3.1202 C   0  0  0  0  0  0  0  0  0  0  0  0
    9.9014   -2.5284   -2.5488 C   0  0  0  0  0  0  0  0  0  0  0  0
    9.1991   -1.9351   -1.3160 C   0  0  0  0  0  0  0  0  0  0  0  0
    8.4257   -0.6465   -1.6337 C   0  0  0  0  0  0  0  0  0  0  0  0
    7.6613   -0.1483   -0.4015 C   0  0  0  0  0  0  0  0  0  0  0  0
    6.8828    1.1368   -0.7192 C   0  0  0  0  0  0  0  0  0  0  0  0
    6.2314    1.7651    0.5258 C   0  0  0  0  0  0  0  0  0  0  0  0
    5.1841    0.8798    1.2308 C   0  0  0  0  0  0  0  0  0  0  0  0
    4.0150    0.4163    0.3395 C   0  0  0  0  0  0  0  0  0  0  0  0
    3.2084    1.5546   -0.3157 C   0  0  0  0  0  0  0  0  0  0  0  0
    2.5929    2.5699    0.6685 C   0  0  0  0  0  0  0  0  0  0  0  0
    1.6698    1.9644    1.7416 C   0  0  0  0  0  0  0  0  0  0  0  0
    0.4292    1.2790    1.1440 C   0  0  0  0  0  0  0  0  0  0  0  0
   -0.5235    0.7389    2.2229 C   0  0  0  0  0  0  0  0  0  0  0  0
   -1.3337    1.8515    2.9086 C   0  0  0  0  0  0  0  0  0  0  0  0
   -2.3491    1.2816    3.9005 C   0  0  0  0  0  0  0  0  0  0  0  0
   -3.3232    0.5306    3.2061 O   0  0  0  0  0  0  0  0  0  0  0  0
   -4.3320    0.0714    4.0898 C   0  0  0  0  0  0  0  0  0  0  0  0
   -5.6642    0.7764    3.7987 C   0  0  1  0  0  0  0  0  0  0  0  0
   -5.5194    2.1543    4.0283 O   0  0  0  0  0  0  0  0  0  0  0  0
   -6.1264    0.5273    2.3554 C   0  0  0  0  0  0  0  0  0  0  0  0
   -7.4103    1.0786    2.1775 O   0  0  0  0  0  0  0  0  0  0  0  0
   -7.8722    0.8575    0.5506 P   0  0  1  0  0  5  0  0  0  0  0  0
   -9.4746    1.3745    0.3717 O   0  0  0  0  0  0  0  0  0  0  0  0
   -6.9819    1.6887   -0.3474 O   0  0  0  0  0  0  0  0  0  0  0  0
   -7.7334   -0.7933    0.1269 O   0  0  0  0  0  0  0  0  0  0  0  0
   -8.3811   -1.0315   -1.1059 C   0  0  0  0  0  0  0  0  0  0  0  0
   -9.7588   -1.6817   -0.8495 C   0  0  0  0  0  0  0  0  0  0  0  0
  -10.6040   -1.8910   -2.0652 N   0  0  0  0  0  4  0  0  0  0  0  0
  -11.0229   -0.5964   -2.6564 C   0  0  0  0  0  0  0  0  0  0  0  0
  -11.8241   -2.6271   -1.6522 C   0  0  0  0  0  0  0  0  0  0  0  0
   -9.8949   -2.6994   -3.0856 C   0  0  0  0  0  0  0  0  0  0  0  0
   12.3439    0.6681   -2.2625 H   0  0  0  0  0  0  0  0  0  0  0  0
   11.3688    0.0382   -0.8769 H   0  0  0  0  0  0  0  0  0  0  0  0
   13.1643   -0.0602   -0.8328 H   0  0  0  0  0  0  0  0  0  0  0  0
   12.2402   -2.2970   -1.3785 H   0  0  0  0  0  0  0  0  0  0  0  0
   13.1843   -1.6226   -2.7370 H   0  0  0  0  0  0  0  0  0  0  0  0
   11.4108   -2.1854   -4.0344 H   0  0  0  0  0  0  0  0  0  0  0  0
   10.6620   -0.6849   -3.4659 H   0  0  0  0  0  0  0  0  0  0  0  0
   10.3062   -3.5283   -2.2790 H   0  0  0  0  0  0  0  0  0  0  0  0
    9.1468   -2.6941   -3.3485 H   0  0  0  0  0  0  0  0  0  0  0  0
    8.4802   -2.6958   -0.9401 H   0  0  0  0  0  0  0  0  0  0  0  0
    9.9335   -1.7565   -0.5033 H   0  0  0  0  0  0  0  0  0  0  0  0
    7.7054   -0.8423   -2.4584 H   0  0  0  0  0  0  0  0  0  0  0  0
    9.1307    0.1460   -1.9613 H   0  0  0  0  0  0  0  0  0  0  0  0
    8.3821    0.0496    0.4223 H   0  0  0  0  0  0  0  0  0  0  0  0
    6.9543   -0.9404   -0.0747 H   0  0  0  0  0  0  0  0  0  0  0  0
    7.5857    1.8864   -1.1443 H   0  0  0  0  0  0  0  0  0  0  0  0
    6.1157    0.9352   -1.4963 H   0  0  0  0  0  0  0  0  0  0  0  0
    5.7640    2.7298    0.2359 H   0  0  0  0  0  0  0  0  0  0  0  0
    7.0295    2.0131    1.2591 H   0  0  0  0  0  0  0  0  0  0  0  0
    5.6855   -0.0171    1.6521 H   0  0  0  0  0  0  0  0  0  0  0  0
    4.7818    1.4363    2.1035 H   0  0  0  0  0  0  0  0  0  0  0  0
    4.4034   -0.2496   -0.4596 H   0  0  0  0  0  0  0  0  0  0  0  0
    3.3331   -0.2151    0.9471 H   0  0  0  0  0  0  0  0  0  0  0  0
    2.4026    1.1074   -0.9349 H   0  0  0  0  0  0  0  0  0  0  0  0
    3.8611    2.1041   -1.0263 H   0  0  0  0  0  0  0  0  0  0  0  0
    2.0159    3.3183    0.0828 H   0  0  0  0  0  0  0  0  0  0  0  0
    3.4072    3.1308    1.1742 H   0  0  0  0  0  0  0  0  0  0  0  0
    1.3476    2.7967    2.4012 H   0  0  0  0  0  0  0  0  0  0  0  0
    2.2332    1.2485    2.3761 H   0  0  0  0  0  0  0  0  0  0  0  0
   -0.1142    1.9837    0.4772 H   0  0  0  0  0  0  0  0  0  0  0  0
    0.7562    0.4146    0.5284 H   0  0  0  0  0  0  0  0  0  0  0  0
   -1.2278    0.0326    1.7313 H   0  0  0  0  0  0  0  0  0  0  0  0
    0.0518    0.1643    2.9818 H   0  0  0  0  0  0  0  0  0  0  0  0
   -0.6510    2.5273    3.4649 H   0  0  0  0  0  0  0  0  0  0  0  0
   -1.8729    2.4537    2.1448 H   0  0  0  0  0  0  0  0  0  0  0  0
   -2.8227    2.1368    4.4347 H   0  0  0  0  0  0  0  0  0  0  0  0
   -1.8161    0.6418    4.6405 H   0  0  0  0  0  0  0  0  0  0  0  0
   -4.4605   -1.0205    3.9292 H   0  0  0  0  0  0  0  0  0  0  0  0
   -4.0861    0.1936    5.1727 H   0  0  0  0  0  0  0  0  0  0  0  0
   -6.4258    0.3533    4.4959 H   0  0  0  0  0  0  0  0  0  0  0  0
   -6.4285    2.5177    4.1934 H   0  0  0  0  0  0  0  0  0  0  0  0
   -5.3929    0.9979    1.6606 H   0  0  0  0  0  0  0  0  0  0  0  0
   -6.1537   -0.5721    2.1795 H   0  0  0  0  0  0  0  0  0  0  0  0
   -9.4763    2.3098    0.6973 H   0  0  0  0  0  0  0  0  0  0  0  0
   -7.7480   -1.7506   -1.6650 H   0  0  0  0  0  0  0  0  0  0  0  0
   -8.4553   -0.1291   -1.7506 H   0  0  0  0  0  0  0  0  0  0  0  0
  -10.3102   -1.0576   -0.1110 H   0  0  0  0  0  0  0  0  0  0  0  0
   -9.5698   -2.6573   -0.3447 H   0  0  0  0  0  0  0  0  0  0  0  0
  -11.7777   -0.7499   -3.4603 H   0  0  0  0  0  0  0  0  0  0  0  0
  -11.4740    0.0687   -1.8865 H   0  0  0  0  0  0  0  0  0  0  0  0
  -10.1714   -0.0608   -3.1256 H   0  0  0  0  0  0  0  0  0  0  0  0
  -12.3961   -2.0558   -0.8864 H   0  0  0  0  0  0  0  0  0  0  0  0
  -11.5666   -3.6195   -1.2181 H   0  0  0  0  0  0  0  0  0  0  0  0
  -12.5030   -2.8059   -2.5165 H   0  0  0  0  0  0  0  0  0  0  0  0
   -9.4996   -3.6410   -2.6434 H   0  0  0  0  0  0  0  0  0  0  0  0
   -9.0455   -2.1384   -3.5320 H   0  0  0  0  0  0  0  0  0  0  0  0
  -10.5749   -2.9710   -3.9242 H   0  0  0  0  0  0  0  0  0  0  0  0
  1  2  1  0
  2  3  1  0
  3  4  1  0
  4  5  1  0
  5  6  1  0
  6  7  1  0
  7  8  1  0
  8  9  1  0
  9 10  1  0
 10 11  1  0
 11 12  1  0
 12 13  1  0
 13 14  1  0
 14 15  1  0
 15 16  1  0
 16 17  1  0
 17 18  1  0
 18 19  1  0
 19 20  1  0
 20 21  1  0
 21 22  1  0
 21 23  1  0
 23 24  1  0
 25 24  1  1
 25 26  1  0
 25 27  2  0
 25 28  1  0
 28 29  1  0
 29 30  1  0
 30 31  1  0
 31 32  1  0
 31 33  1  0
 31 34  1  0
  1 35  1  0
  1 36  1  0
  1 37  1  0
  2 38  1  0
  2 39  1  0
  3 40  1  0
  3 41  1  0
  4 42  1  0
  4 43  1  0
  5 44  1  0
  5 45  1  0
  6 46  1  0
  6 47  1  0
  7 48  1  0
  7 49  1  0
  8 50  1  0
  8 51  1  0
  9 52  1  0
  9 53  1  0
 10 54  1  0
 10 55  1  0
 11 56  1  0
 11 57  1  0
 12 58  1  0
 12 59  1  0
 13 60  1  0
 13 61  1  0
 14 62  1  0
 14 63  1  0
 15 64  1  0
 15 65  1  0
 16 66  1  0
 16 67  1  0
 17 68  1  0
 17 69  1  0
 18 70  1  0
 18 71  1  0
 20 72  1  0
 20 73  1  0
 21 74  1  1
 22 75  1  0
 23 76  1  0
 23 77  1  0
 26 78  1  0
 29 79  1  0
 29 80  1  0
 30 81  1  0
 30 82  1  0
 32 83  1  0
 32 84  1  0
 32 85  1  0
 33 86  1  0
 33 87  1  0
 33 88  1  0
 34 89  1  0
 34 90  1  0
 34 91  1  0
M  CHG  1  31   1
M  END
$$$$
