
     RDKit          3D

 52 54  0  0  0  0  0  0  0  0999 V2000
   -3.6475   -3.0894    3.5847 C   0  0  0  0  0  0  0  0  0  0  0  0
   -3.8060   -1.7601    3.1433 O   0  0  0  0  0  0  0  0  0  0  0  0
   -2.9272   -0.9205    3.8621 C   0  0  0  0  0  0  0  0  0  0  0  0
   -3.0795    0.5145    3.3615 C   0  0  0  0  0  0  0  0  0  0  0  0
   -2.8104    0.5980    1.9611 O   0  0  0  0  0  0  0  0  0  0  0  0
   -1.5471    0.5360    1.3502 C   0  0  0  0  0  0  0  0  0  0  0  0
   -0.3642    0.5314    2.1166 C   0  0  0  0  0  0  0  0  0  0  0  0
    0.8863    0.4344    1.5033 C   0  0  0  0  0  0  0  0  0  0  0  0
    0.9844    0.3529    0.1007 C   0  0  0  0  0  0  0  0  0  0  0  0
   -0.1922    0.3521   -0.6664 C   0  0  0  0  0  0  0  0  0  0  0  0
   -1.4520    0.4635   -0.0632 C   0  0  0  0  0  0  0  0  0  0  0  0
   -2.5610    0.4734   -0.9316 O   0  0  0  0  0  0  0  0  0  0  0  0
   -3.8797    0.9495   -0.6556 C   0  0  0  0  0  0  0  0  0  0  0  0
   -3.8837    2.4569   -0.4015 C   0  0  0  0  0  0  0  0  0  0  0  0
   -3.3516    3.1207   -1.5285 O   0  0  0  0  0  0  0  0  0  0  0  0
   -3.3242    4.5086   -1.2834 C   0  0  0  0  0  0  0  0  0  0  0  0
    2.2734    0.2514   -0.4684 C   0  0  0  0  0  0  0  0  0  0  0  0
    2.4677    0.2282   -1.8933 N   0  0  0  0  0  0  0  0  0  0  0  0
    3.5602   -0.4565   -2.5308 C   0  0  0  0  0  0  0  0  0  0  0  0
    4.1339   -1.6092   -1.9613 C   0  0  0  0  0  0  0  0  0  0  0  0
    5.1849   -2.2709   -2.6105 C   0  0  0  0  0  0  0  0  0  0  0  0
    5.6595   -1.7920   -3.8375 C   0  0  0  0  0  0  0  0  0  0  0  0
    5.0808   -0.6603   -4.4170 C   0  0  0  0  0  0  0  0  0  0  0  0
    4.0325    0.0009   -3.7710 C   0  0  0  0  0  0  0  0  0  0  0  0
    5.7704   -3.4465   -2.0209 C   0  0  0  0  0  0  0  0  0  0  0  0
    6.2605   -4.4309   -1.5267 C   0  0  0  0  0  0  0  0  0  0  0  0
    3.3603    0.2316    0.3510 N   0  0  0  0  0  0  0  0  0  0  0  0
    3.2371    0.3027    1.7000 C   0  0  0  0  0  0  0  0  0  0  0  0
    2.0096    0.4071    2.2662 N   0  0  0  0  0  0  0  0  0  0  0  0
   -2.6185   -3.4608    3.3811 H   0  0  0  0  0  0  0  0  0  0  0  0
   -3.8900   -3.1878    4.6664 H   0  0  0  0  0  0  0  0  0  0  0  0
   -4.3537   -3.7347    3.0230 H   0  0  0  0  0  0  0  0  0  0  0  0
   -1.8706   -1.2432    3.7278 H   0  0  0  0  0  0  0  0  0  0  0  0
   -3.1740   -0.9340    4.9482 H   0  0  0  0  0  0  0  0  0  0  0  0
   -4.1286    0.8368    3.5319 H   0  0  0  0  0  0  0  0  0  0  0  0
   -2.4305    1.2104    3.9335 H   0  0  0  0  0  0  0  0  0  0  0  0
   -0.3989    0.5951    3.1948 H   0  0  0  0  0  0  0  0  0  0  0  0
   -0.1531    0.2617   -1.7433 H   0  0  0  0  0  0  0  0  0  0  0  0
   -4.5092    0.7473   -1.5480 H   0  0  0  0  0  0  0  0  0  0  0  0
   -4.3449    0.3907    0.1806 H   0  0  0  0  0  0  0  0  0  0  0  0
   -3.2832    2.6770    0.5088 H   0  0  0  0  0  0  0  0  0  0  0  0
   -4.9369    2.7726   -0.2232 H   0  0  0  0  0  0  0  0  0  0  0  0
   -2.6532    4.7529   -0.4300 H   0  0  0  0  0  0  0  0  0  0  0  0
   -4.3471    4.9074   -1.1010 H   0  0  0  0  0  0  0  0  0  0  0  0
   -2.9213    5.0182   -2.1826 H   0  0  0  0  0  0  0  0  0  0  0  0
    1.8669    0.8446   -2.4853 H   0  0  0  0  0  0  0  0  0  0  0  0
    3.7538   -2.0034   -1.0268 H   0  0  0  0  0  0  0  0  0  0  0  0
    6.4708   -2.2969   -4.3481 H   0  0  0  0  0  0  0  0  0  0  0  0
    5.4442   -0.2955   -5.3690 H   0  0  0  0  0  0  0  0  0  0  0  0
    3.5930    0.8762   -4.2327 H   0  0  0  0  0  0  0  0  0  0  0  0
    6.6906   -5.2950   -1.0929 H   0  0  0  0  0  0  0  0  0  0  0  0
    4.1196    0.2827    2.3242 H   0  0  0  0  0  0  0  0  0  0  0  0
  1  2  1  0
  2  3  1  0
  3  4  1  0
  4  5  1  0
  5  6  1  0
  6  7  2  0
  7  8  1  0
  8  9  2  0
  9 10  1  0
 10 11  2  0
 11 12  1  0
 12 13  1  0
 13 14  1  0
 14 15  1  0
 15 16  1  0
  9 17  1  0
 17 18  1  0
 18 19  1  0
 19 20  2  0
 20 21  1  0
 21 22  2  0
 22 23  1  0
 23 24  2  0
 21 25  1  0
 25 26  3  0
 17 27  2  0
 27 28  1  0
 28 29  2  0
 11  6  1  0
 24 19  1  0
 29  8  1  0
  1 30  1  0
  1 31  1  0
  1 32  1  0
  3 33  1  0
  3 34  1  0
  4 35  1  0
  4 36  1  0
  7 37  1  0
 10 38  1  0
 13 39  1  0
 13 40  1  0
 14 41  1  0
 14 42  1  0
 16 43  1  0
 16 44  1  0
 16 45  1  0
 18 46  1  0
 20 47  1  0
 22 48  1  0
 23 49  1  0
 24 50  1  0
 26 51  1  0
 28 52  1  0
M  END
$$$$
