
     RDKit          3D

 76 80  0  0  0  0  0  0  0  0999 V2000
   -3.7031   -3.4242    1.2018 C   0  0  0  0  0  0  0  0  0  0  0  0
   -2.8855   -2.2035    0.8828 C   0  0  0  0  0  0  0  0  0  0  0  0
   -3.3684   -0.9341    0.5942 C   0  0  0  0  0  0  0  0  0  0  0  0
   -4.8187   -0.5312    0.4955 C   0  0  0  0  0  0  0  0  0  0  0  0
   -5.3182   -0.6672   -0.9441 C   0  0  0  0  0  0  0  0  0  0  0  0
   -6.7543   -0.2617   -1.0395 C   0  0  0  0  0  0  0  0  0  0  0  0
   -7.7557   -1.2029   -0.8230 O   0  0  0  0  0  0  0  0  0  0  0  0
   -7.0573    0.9386   -1.2750 O   0  0  0  0  0  0  0  0  0  0  0  0
   -2.2554   -0.1390    0.3309 C   0  0  0  0  0  0  0  0  0  0  0  0
   -2.3144    1.1993   -0.1063 C   0  0  0  0  0  0  0  0  0  0  0  0
   -1.2404    1.9797   -0.5619 C   0  0  0  0  0  0  0  0  0  0  0  0
    0.0368    1.5580   -0.6436 N   0  0  0  0  0  0  0  0  0  0  0  0
    0.7594    2.5754   -1.1508 C   0  0  0  0  0  0  0  0  0  0  0  0
    2.1523    2.5678   -1.3173 C   0  0  0  0  0  0  0  0  0  0  0  0
    3.0223    1.4966   -1.0364 C   0  0  0  0  0  0  0  0  0  0  0  0
    4.4107    1.5887   -1.0309 C   0  0  0  0  0  0  0  0  0  0  0  0
    5.2261    2.8327   -1.2521 C   0  0  0  0  0  0  0  0  0  0  0  0
    4.8910    0.3187   -0.7285 C   0  0  0  0  0  0  0  0  0  0  0  0
    6.3033   -0.1007   -0.5914 C   0  0  0  0  0  0  0  0  0  0  0  0
    7.2512    0.2953   -1.4376 C   0  0  0  0  0  0  0  0  0  0  0  0
    3.7750   -0.4846   -0.5170 C   0  0  0  0  0  0  0  0  0  0  0  0
    2.6494    0.2312   -0.7393 N   0  0  0  0  0  0  0  0  0  0  0  0
    3.8273   -1.8434   -0.1502 C   0  0  0  0  0  0  0  0  0  0  0  0
    2.7460   -2.6324    0.2697 C   0  0  0  0  0  0  0  0  0  0  0  0
    1.4802   -2.1933    0.4126 N   0  0  0  0  0  0  0  0  0  0  0  0
    0.7659   -3.2042    0.9456 C   0  0  0  0  0  0  0  0  0  0  0  0
   -0.6276   -3.1955    1.1121 C   0  0  0  0  0  0  0  0  0  0  0  0
   -1.4977   -2.1194    0.8484 C   0  0  0  0  0  0  0  0  0  0  0  0
   -1.1274   -0.8587    0.5287 N   0  0  0  0  0  0  0  0  0  0  0  0
    1.6428   -4.3635    1.1791 C   0  0  0  0  0  0  0  0  0  0  0  0
    1.3065   -5.6372    1.8503 C   0  0  0  0  0  0  0  0  0  0  0  0
    0.5291   -5.6875    2.9292 C   0  0  0  0  0  0  0  0  0  0  0  0
    2.8462   -4.0255    0.7202 C   0  0  0  0  0  0  0  0  0  0  0  0
    4.1085   -4.8315    0.8396 C   0  0  0  0  0  0  0  0  0  0  0  0
   -0.1120    3.7258   -1.4153 C   0  0  0  0  0  0  0  0  0  0  0  0
    0.3408    5.0963   -1.8339 C   0  0  0  0  0  0  0  0  0  0  0  0
   -1.3435    3.3634   -1.0534 C   0  0  0  0  0  0  0  0  0  0  0  0
   -2.5640    4.2538   -1.0047 C   0  0  0  0  0  0  0  0  0  0  0  0
   -2.6103    5.0866    0.2816 C   0  0  0  0  0  0  0  0  0  0  0  0
   -2.8225    4.2254    1.4885 C   0  0  0  0  0  0  0  0  0  0  0  0
   -1.7290    3.7904    2.2307 O   0  0  0  0  0  0  0  0  0  0  0  0
   -3.9858    3.8607    1.8074 O   0  0  0  0  0  0  0  0  0  0  0  0
   -3.2797   -4.3131    0.6903 H   0  0  0  0  0  0  0  0  0  0  0  0
   -3.7030   -3.5943    2.2983 H   0  0  0  0  0  0  0  0  0  0  0  0
   -4.7481   -3.3145    0.8493 H   0  0  0  0  0  0  0  0  0  0  0  0
   -5.4346   -1.1615    1.1713 H   0  0  0  0  0  0  0  0  0  0  0  0
   -4.9469    0.5138    0.8486 H   0  0  0  0  0  0  0  0  0  0  0  0
   -5.2154   -1.7219   -1.2798 H   0  0  0  0  0  0  0  0  0  0  0  0
   -4.7087   -0.0281   -1.6200 H   0  0  0  0  0  0  0  0  0  0  0  0
   -8.7332   -0.9408   -0.8675 H   0  0  0  0  0  0  0  0  0  0  0  0
   -3.2903    1.6542   -0.1542 H   0  0  0  0  0  0  0  0  0  0  0  0
    2.6009    3.4921   -1.6520 H   0  0  0  0  0  0  0  0  0  0  0  0
    6.2234    2.7429   -0.7759 H   0  0  0  0  0  0  0  0  0  0  0  0
    5.3487    3.0088   -2.3408 H   0  0  0  0  0  0  0  0  0  0  0  0
    4.7286    3.7099   -0.7899 H   0  0  0  0  0  0  0  0  0  0  0  0
    6.5673   -0.8103    0.1822 H   0  0  0  0  0  0  0  0  0  0  0  0
    8.2660   -0.0604   -1.3159 H   0  0  0  0  0  0  0  0  0  0  0  0
    7.0271    0.9459   -2.2727 H   0  0  0  0  0  0  0  0  0  0  0  0
    1.6863   -0.1477   -0.7849 H   0  0  0  0  0  0  0  0  0  0  0  0
    4.8014   -2.3103   -0.1249 H   0  0  0  0  0  0  0  0  0  0  0  0
   -1.0807   -4.1263    1.4188 H   0  0  0  0  0  0  0  0  0  0  0  0
   -0.1604   -0.4895    0.5240 H   0  0  0  0  0  0  0  0  0  0  0  0
    1.7586   -6.5554    1.4987 H   0  0  0  0  0  0  0  0  0  0  0  0
    0.3301   -6.6378    3.4070 H   0  0  0  0  0  0  0  0  0  0  0  0
    0.1122   -4.7899    3.3674 H   0  0  0  0  0  0  0  0  0  0  0  0
    4.7618   -4.6474   -0.0377 H   0  0  0  0  0  0  0  0  0  0  0  0
    3.8937   -5.9186    0.8698 H   0  0  0  0  0  0  0  0  0  0  0  0
    4.6468   -4.5401    1.7652 H   0  0  0  0  0  0  0  0  0  0  0  0
    0.7809    5.6206   -0.9605 H   0  0  0  0  0  0  0  0  0  0  0  0
   -0.4934    5.7037   -2.2361 H   0  0  0  0  0  0  0  0  0  0  0  0
    1.1053    5.0137   -2.6334 H   0  0  0  0  0  0  0  0  0  0  0  0
   -2.5667    4.9365   -1.8790 H   0  0  0  0  0  0  0  0  0  0  0  0
   -3.4919    3.6539   -1.1006 H   0  0  0  0  0  0  0  0  0  0  0  0
   -1.6679    5.6646    0.3960 H   0  0  0  0  0  0  0  0  0  0  0  0
   -3.4439    5.8181    0.2086 H   0  0  0  0  0  0  0  0  0  0  0  0
   -1.8539    3.1857    3.0336 H   0  0  0  0  0  0  0  0  0  0  0  0
  1  2  1  0
  2  3  2  0
  3  4  1  0
  4  5  1  0
  5  6  1  0
  6  7  1  0
  6  8  2  0
  3  9  1  0
  9 10  2  0
 10 11  1  0
 11 12  2  0
 12 13  1  0
 13 14  2  0
 14 15  1  0
 15 16  2  0
 16 17  1  0
 16 18  1  0
 18 19  1  0
 19 20  2  3
 18 21  2  0
 21 22  1  0
 21 23  1  0
 23 24  2  0
 24 25  1  0
 25 26  2  0
 26 27  1  0
 27 28  2  0
 28 29  1  0
 26 30  1  0
 30 31  1  0
 31 32  2  3
 30 33  2  0
 33 34  1  0
 13 35  1  0
 35 36  1  0
 35 37  2  0
 37 38  1  0
 38 39  1  0
 39 40  1  0
 40 41  1  0
 40 42  2  0
 28  2  1  0
 29  9  1  0
 37 11  1  0
 22 15  1  0
 33 24  1  0
  1 43  1  0
  1 44  1  0
  1 45  1  0
  4 46  1  0
  4 47  1  0
  5 48  1  0
  5 49  1  0
  7 50  1  0
 10 51  1  0
 14 52  1  0
 17 53  1  0
 17 54  1  0
 17 55  1  0
 19 56  1  0
 20 57  1  0
 20 58  1  0
 22 59  1  0
 23 60  1  0
 27 61  1  0
 29 62  1  0
 31 63  1  0
 32 64  1  0
 32 65  1  0
 34 66  1  0
 34 67  1  0
 34 68  1  0
 36 69  1  0
 36 70  1  0
 36 71  1  0
 38 72  1  0
 38 73  1  0
 39 74  1  0
 39 75  1  0
 41 76  1  0
M  END
$$$$
