
     RDKit          3D

 39 41  0  0  0  0  0  0  0  0999 V2000
    1.5667    0.1408   -1.3695 C   0  0  0  0  0  0  0  0  0  0  0  0
    2.0919   -0.3771   -0.0512 C   0  0  0  0  0  0  0  0  0  0  0  0
    3.4826   -0.4231    0.1902 C   0  0  0  0  0  0  0  0  0  0  0  0
    4.3674    0.0270   -0.8043 O   0  0  0  0  0  0  0  0  0  0  0  0
    5.7883    0.0342   -0.6863 C   0  0  0  0  0  0  0  0  0  0  0  0
    6.4051    0.5903   -1.9627 C   0  0  0  0  0  0  0  0  0  0  0  0
    6.0447   -0.1976   -3.0409 F   0  0  0  0  0  0  0  0  0  0  0  0
    5.9617    1.8834   -2.1743 F   0  0  0  0  0  0  0  0  0  0  0  0
    7.7830    0.5973   -1.8474 F   0  0  0  0  0  0  0  0  0  0  0  0
    3.9516   -0.9190    1.4191 C   0  0  0  0  0  0  0  0  0  0  0  0
    3.0448   -1.3686    2.3742 C   0  0  0  0  0  0  0  0  0  0  0  0
    1.7143   -1.3393    2.1167 N   0  0  0  0  0  0  0  0  0  0  0  0
    1.2104   -0.8772    0.9406 C   0  0  0  0  0  0  0  0  0  0  0  0
   -0.2835   -0.8783    0.7679 C   0  0  0  0  0  0  0  0  0  0  0  0
   -0.9617    0.7238    1.2496 S   0  0  0  0  0  4  0  0  0  0  0  0
   -0.8704    0.7444    2.7696 O   0  0  0  0  0  0  0  0  0  0  0  0
   -2.7001    0.5767    0.9309 C   0  0  0  0  0  0  0  0  0  0  0  0
   -3.4768   -0.3889    1.4894 N   0  0  0  0  0  0  0  0  0  0  0  0
   -4.6892   -0.1242    0.9705 C   0  0  0  0  0  0  0  0  0  0  0  0
   -5.8818   -0.8068    1.1987 C   0  0  0  0  0  0  0  0  0  0  0  0
   -7.0364   -0.3448    0.5375 C   0  0  0  0  0  0  0  0  0  0  0  0
   -6.9687    0.7744   -0.3247 C   0  0  0  0  0  0  0  0  0  0  0  0
   -5.7461    1.4408   -0.5327 C   0  0  0  0  0  0  0  0  0  0  0  0
   -4.6268    0.9546    0.1389 C   0  0  0  0  0  0  0  0  0  0  0  0
   -3.3701    1.4123    0.1020 N   0  0  0  0  0  0  0  0  0  0  0  0
    2.3259    0.7338   -1.9198 H   0  0  0  0  0  0  0  0  0  0  0  0
    1.2574   -0.7141   -2.0062 H   0  0  0  0  0  0  0  0  0  0  0  0
    0.6975    0.8106   -1.2073 H   0  0  0  0  0  0  0  0  0  0  0  0
    6.0903    0.6720    0.1727 H   0  0  0  0  0  0  0  0  0  0  0  0
    6.1567   -1.0022   -0.5245 H   0  0  0  0  0  0  0  0  0  0  0  0
    5.0082   -0.9623    1.6448 H   0  0  0  0  0  0  0  0  0  0  0  0
    3.3998   -1.7478    3.3232 H   0  0  0  0  0  0  0  0  0  0  0  0
   -0.7354   -1.6679    1.4059 H   0  0  0  0  0  0  0  0  0  0  0  0
   -0.5646   -1.1049   -0.2815 H   0  0  0  0  0  0  0  0  0  0  0  0
   -5.9208   -1.6624    1.8604 H   0  0  0  0  0  0  0  0  0  0  0  0
   -7.9813   -0.8498    0.6902 H   0  0  0  0  0  0  0  0  0  0  0  0
   -7.8620    1.1208   -0.8278 H   0  0  0  0  0  0  0  0  0  0  0  0
   -5.6795    2.2981   -1.1898 H   0  0  0  0  0  0  0  0  0  0  0  0
   -2.9930    2.2214   -0.4400 H   0  0  0  0  0  0  0  0  0  0  0  0
  1  2  1  0
  2  3  2  0
  3  4  1  0
  4  5  1  0
  5  6  1  0
  6  7  1  0
  6  8  1  0
  6  9  1  0
  3 10  1  0
 10 11  2  0
 11 12  1  0
 12 13  2  0
 13 14  1  0
 14 15  1  0
 15 16  2  0
 15 17  1  0
 17 18  2  0
 18 19  1  0
 19 20  2  0
 20 21  1  0
 21 22  2  0
 22 23  1  0
 23 24  2  0
 24 25  1  0
 13  2  1  0
 25 17  1  0
 24 19  1  0
  1 26  1  0
  1 27  1  0
  1 28  1  0
  5 29  1  0
  5 30  1  0
 10 31  1  0
 11 32  1  0
 14 33  1  0
 14 34  1  0
 20 35  1  0
 21 36  1  0
 22 37  1  0
 23 38  1  0
 25 39  1  0
M  END
$$$$
