
     RDKit          3D

 60 63  0  0  0  0  0  0  0  0999 V2000
   -4.3978    3.2908    1.0847 C   0  0  0  0  0  0  0  0  0  0  0  0
   -3.4692    2.3022    1.7888 C   0  0  0  0  0  0  0  0  0  0  0  0
   -1.9910    2.7216    1.7183 C   0  0  0  0  0  0  0  0  0  0  0  0
   -1.3578    2.5574    0.3249 C   0  0  0  0  0  0  0  0  0  0  0  0
   -1.3335    1.1438   -0.0951 N   0  0  0  0  0  0  0  0  0  0  0  0
   -0.4048    0.2919    0.4184 C   0  0  0  0  0  0  0  0  0  0  0  0
   -0.3667   -1.0162    0.0909 C   0  0  0  0  0  0  0  0  0  0  0  0
    0.6495   -1.6101    0.7286 N   0  0  0  0  0  0  0  0  0  0  0  0
    1.2031   -0.6035    1.4494 C   0  0  0  0  0  0  0  0  0  0  0  0
    2.4317   -0.7733    2.2847 C   0  0  0  0  0  0  0  0  0  0  0  0
    3.6571   -0.5656    1.4395 C   0  0  0  0  0  0  0  0  0  0  0  0
    4.2367   -1.6450    0.7554 C   0  0  0  0  0  0  0  0  0  0  0  0
    5.3528   -1.4457   -0.0625 C   0  0  0  0  0  0  0  0  0  0  0  0
    5.9088   -0.1618   -0.2060 C   0  0  0  0  0  0  0  0  0  0  0  0
    7.0408    0.0754   -1.0608 N   0  0  0  0  0  0  0  0  0  0  0  0
    8.1088   -0.8629   -1.2631 C   0  0  0  0  0  0  0  0  0  0  0  0
    9.1341   -0.6054   -2.3186 C   0  0  0  0  0  0  0  0  0  0  0  0
    8.2405   -1.8613   -0.5049 O   0  0  0  0  0  0  0  0  0  0  0  0
    5.3040    0.9207    0.4497 C   0  0  0  0  0  0  0  0  0  0  0  0
    4.1887    0.7215    1.2683 C   0  0  0  0  0  0  0  0  0  0  0  0
    0.5866    0.5964    1.2780 N   0  0  0  0  0  0  0  0  0  0  0  0
   -1.2914   -1.5540   -0.7851 C   0  0  0  0  0  0  0  0  0  0  0  0
   -1.2402   -2.7787   -1.0829 O   0  0  0  0  0  0  0  0  0  0  0  0
   -2.2520   -0.7192   -1.3137 N   0  0  0  0  0  0  0  0  0  0  0  0
   -3.3025   -1.2564   -2.2037 C   0  0  0  0  0  0  0  0  0  0  0  0
   -4.6176   -1.3613   -1.4683 C   0  0  0  0  0  0  0  0  0  0  0  0
   -5.6280   -0.4081   -1.6893 C   0  0  0  0  0  0  0  0  0  0  0  0
   -6.8314   -0.4758   -0.9817 C   0  0  0  0  0  0  0  0  0  0  0  0
   -7.0392   -1.4944   -0.0495 C   0  0  0  0  0  0  0  0  0  0  0  0
   -6.0443   -2.4487    0.1756 C   0  0  0  0  0  0  0  0  0  0  0  0
   -4.8367   -2.3860   -0.5278 C   0  0  0  0  0  0  0  0  0  0  0  0
   -3.8887   -3.3270   -0.2937 F   0  0  0  0  0  0  0  0  0  0  0  0
   -2.2569    0.6284   -0.9829 C   0  0  0  0  0  0  0  0  0  0  0  0
   -3.1180    1.3941   -1.4993 O   0  0  0  0  0  0  0  0  0  0  0  0
   -4.2755    4.3083    1.5129 H   0  0  0  0  0  0  0  0  0  0  0  0
   -5.4518    2.9720    1.2279 H   0  0  0  0  0  0  0  0  0  0  0  0
   -4.1922    3.3250   -0.0040 H   0  0  0  0  0  0  0  0  0  0  0  0
   -3.7666    2.2553    2.8588 H   0  0  0  0  0  0  0  0  0  0  0  0
   -3.6109    1.2850    1.3668 H   0  0  0  0  0  0  0  0  0  0  0  0
   -1.4171    2.1108    2.4478 H   0  0  0  0  0  0  0  0  0  0  0  0
   -1.8914    3.7816    2.0385 H   0  0  0  0  0  0  0  0  0  0  0  0
   -1.8847    3.1945   -0.4160 H   0  0  0  0  0  0  0  0  0  0  0  0
   -0.3175    2.9493    0.3615 H   0  0  0  0  0  0  0  0  0  0  0  0
    0.9520   -2.6084    0.6754 H   0  0  0  0  0  0  0  0  0  0  0  0
    2.4143   -0.0447    3.1241 H   0  0  0  0  0  0  0  0  0  0  0  0
    2.4391   -1.7903    2.7336 H   0  0  0  0  0  0  0  0  0  0  0  0
    3.8169   -2.6393    0.8465 H   0  0  0  0  0  0  0  0  0  0  0  0
    5.7592   -2.2896   -0.6032 H   0  0  0  0  0  0  0  0  0  0  0  0
    7.1360    1.0195   -1.4996 H   0  0  0  0  0  0  0  0  0  0  0  0
    9.6475   -1.5501   -2.5973 H   0  0  0  0  0  0  0  0  0  0  0  0
    8.6478   -0.1850   -3.2238 H   0  0  0  0  0  0  0  0  0  0  0  0
    9.8839    0.1182   -1.9367 H   0  0  0  0  0  0  0  0  0  0  0  0
    5.7025    1.9205    0.3305 H   0  0  0  0  0  0  0  0  0  0  0  0
    3.7364    1.5712    1.7648 H   0  0  0  0  0  0  0  0  0  0  0  0
   -3.4045   -0.6029   -3.0983 H   0  0  0  0  0  0  0  0  0  0  0  0
   -3.0302   -2.2545   -2.6092 H   0  0  0  0  0  0  0  0  0  0  0  0
   -5.4848    0.3898   -2.4070 H   0  0  0  0  0  0  0  0  0  0  0  0
   -7.6030    0.2631   -1.1556 H   0  0  0  0  0  0  0  0  0  0  0  0
   -7.9716   -1.5452    0.4978 H   0  0  0  0  0  0  0  0  0  0  0  0
   -6.2095   -3.2380    0.8976 H   0  0  0  0  0  0  0  0  0  0  0  0
  1  2  1  0
  2  3  1  0
  3  4  1  0
  4  5  1  0
  5  6  1  0
  6  7  2  0
  7  8  1  0
  8  9  1  0
  9 10  1  0
 10 11  1  0
 11 12  2  0
 12 13  1  0
 13 14  2  0
 14 15  1  0
 15 16  1  0
 16 17  1  0
 16 18  2  0
 14 19  1  0
 19 20  2  0
  9 21  2  0
  7 22  1  0
 22 23  2  0
 22 24  1  0
 24 25  1  0
 25 26  1  0
 26 27  2  0
 27 28  1  0
 28 29  2  0
 29 30  1  0
 30 31  2  0
 31 32  1  0
 24 33  1  0
 33 34  2  0
 33  5  1  0
 21  6  1  0
 31 26  1  0
 20 11  1  0
  1 35  1  0
  1 36  1  0
  1 37  1  0
  2 38  1  0
  2 39  1  0
  3 40  1  0
  3 41  1  0
  4 42  1  0
  4 43  1  0
  8 44  1  0
 10 45  1  0
 10 46  1  0
 12 47  1  0
 13 48  1  0
 15 49  1  0
 17 50  1  0
 17 51  1  0
 17 52  1  0
 19 53  1  0
 20 54  1  0
 25 55  1  0
 25 56  1  0
 27 57  1  0
 28 58  1  0
 29 59  1  0
 30 60  1  0
M  END
$$$$
