
     RDKit          3D

 23 24  0  0  0  0  0  0  0  0999 V2000
    5.1097   -2.0122   -0.7858 O   0  0  0  0  0  1  0  0  0  0  0  0
    4.9963   -0.8953    0.0079 N   0  0  0  0  0  4  0  0  0  0  0  0
    6.0227   -0.3824    0.4989 O   0  0  0  0  0  0  0  0  0  0  0  0
    3.7080   -0.3319    0.2640 C   0  0  0  0  0  0  0  0  0  0  0  0
    3.4557    0.7833    1.0403 C   0  0  0  0  0  0  0  0  0  0  0  0
    2.0872    0.9525    1.0021 C   0  0  0  0  0  0  0  0  0  0  0  0
    1.6011   -0.0711    0.2055 C   0  0  0  0  0  0  0  0  0  0  0  0
    2.5910   -0.8214   -0.2207 O   0  0  0  0  0  0  0  0  0  0  0  0
    0.1957   -0.3144   -0.1351 C   0  0  0  0  0  0  0  0  0  0  0  0
   -0.7360    0.4660    0.3195 N   0  0  0  0  0  0  0  0  0  0  0  0
   -2.1001    0.2849    0.0287 N   0  0  0  0  0  0  0  0  0  0  0  0
   -2.6942   -0.7644   -0.7991 C   0  0  0  0  0  0  0  0  0  0  0  0
   -4.1545   -0.4317   -0.7300 C   0  0  0  0  0  0  0  0  0  0  0  0
   -5.0600   -1.0865   -1.3094 O   0  0  0  0  0  0  0  0  0  0  0  0
   -4.4182    0.7158    0.0682 N   0  0  0  0  0  0  0  0  0  0  0  0
   -3.1389    1.1226    0.5122 C   0  0  0  0  0  0  0  0  0  0  0  0
   -2.9450    2.1202    1.2557 O   0  0  0  0  0  0  0  0  0  0  0  0
    4.1743    1.3965    1.5676 H   0  0  0  0  0  0  0  0  0  0  0  0
    1.5164    1.7282    1.4957 H   0  0  0  0  0  0  0  0  0  0  0  0
   -0.0447   -1.1561   -0.7715 H   0  0  0  0  0  0  0  0  0  0  0  0
   -2.4994   -1.7653   -0.3593 H   0  0  0  0  0  0  0  0  0  0  0  0
   -2.3252   -0.6925   -1.8441 H   0  0  0  0  0  0  0  0  0  0  0  0
   -5.3417    1.1554    0.2775 H   0  0  0  0  0  0  0  0  0  0  0  0
  1  2  1  0
  2  3  2  0
  2  4  1  0
  4  5  2  0
  5  6  1  0
  6  7  2  0
  7  8  1  0
  7  9  1  0
  9 10  2  0
 10 11  1  0
 11 12  1  0
 12 13  1  0
 13 14  2  0
 13 15  1  0
 15 16  1  0
 16 17  2  0
  8  4  1  0
 16 11  1  0
  5 18  1  0
  6 19  1  0
  9 20  1  0
 12 21  1  0
 12 22  1  0
 15 23  1  0
M  CHG  2   1  -1   2   1
M  END
$$$$
