
     RDKit          3D

 50 49  0  0  0  0  0  0  0  0999 V2000
    3.7110   -1.7584   -0.6724 C   0  0  1  0  0  0  0  0  0  0  0  0
    5.1001   -1.6154   -0.8292 O   0  0  0  0  0  0  0  0  0  0  0  0
    3.4077   -2.9794    0.2093 C   0  0  0  0  0  0  0  0  0  0  0  0
    4.0308   -2.8700    1.5693 C   0  0  0  0  0  0  0  0  0  0  0  0
    5.3557   -3.2504    1.7578 O   0  0  0  0  0  0  0  0  0  0  0  0
    3.3657   -2.4051    2.5335 O   0  0  0  0  0  0  0  0  0  0  0  0
    3.1069   -0.5055   -0.0899 C   0  0  0  0  0  0  0  0  0  0  0  0
    3.8216    0.2750    0.5972 O   0  0  0  0  0  0  0  0  0  0  0  0
    1.7103   -0.2321   -0.2765 N   0  0  0  0  0  0  0  0  0  0  0  0
    1.0666    0.9728    0.2573 C   0  0  1  0  0  0  0  0  0  0  0  0
    1.2836    2.1568   -0.7152 C   0  0  0  0  0  0  0  0  0  0  0  0
    1.0353    3.5526   -0.0873 C   0  0  0  0  0  0  0  0  0  0  0  0
   -0.4615    3.8656    0.0673 C   0  0  0  0  0  0  0  0  0  0  0  0
    1.6977    4.6382   -0.9481 C   0  0  0  0  0  0  0  0  0  0  0  0
   -0.3924    0.6874    0.5123 C   0  0  0  0  0  0  0  0  0  0  0  0
   -0.8249    0.7138    1.6970 O   0  0  0  0  0  0  0  0  0  0  0  0
   -1.2808    0.3658   -0.5700 N   0  0  0  0  0  0  0  0  0  0  0  0
   -2.7034    0.1031   -0.3643 C   0  0  0  0  0  0  0  0  0  0  0  0
   -2.9063   -1.2953    0.2363 C   0  0  0  0  0  0  0  0  0  0  0  0
   -4.3927   -1.7127    0.2926 C   0  0  0  0  0  0  0  0  0  0  0  0
   -5.1870   -0.8653    1.2981 C   0  0  0  0  0  0  0  0  0  0  0  0
   -4.5072   -3.1981    0.6589 C   0  0  0  0  0  0  0  0  0  0  0  0
    3.2489   -1.9428   -1.6700 H   0  0  0  0  0  0  0  0  0  0  0  0
    5.2401   -1.0017   -1.5975 H   0  0  0  0  0  0  0  0  0  0  0  0
    3.7982   -3.8924   -0.2897 H   0  0  0  0  0  0  0  0  0  0  0  0
    2.3072   -3.1052    0.3113 H   0  0  0  0  0  0  0  0  0  0  0  0
    5.7949   -3.1694    2.6670 H   0  0  0  0  0  0  0  0  0  0  0  0
    1.1572   -0.8858   -0.8766 H   0  0  0  0  0  0  0  0  0  0  0  0
    1.5410    1.2240    1.2326 H   0  0  0  0  0  0  0  0  0  0  0  0
    2.3453    2.1156   -1.0454 H   0  0  0  0  0  0  0  0  0  0  0  0
    0.6736    2.0343   -1.6355 H   0  0  0  0  0  0  0  0  0  0  0  0
    1.5092    3.5926    0.9183 H   0  0  0  0  0  0  0  0  0  0  0  0
   -1.0029    3.6907   -0.8871 H   0  0  0  0  0  0  0  0  0  0  0  0
   -0.9136    3.2454    0.8649 H   0  0  0  0  0  0  0  0  0  0  0  0
   -0.6068    4.9254    0.3675 H   0  0  0  0  0  0  0  0  0  0  0  0
    2.7919    4.4598   -1.0204 H   0  0  0  0  0  0  0  0  0  0  0  0
    1.2655    4.6427   -1.9721 H   0  0  0  0  0  0  0  0  0  0  0  0
    1.5489    5.6397   -0.4906 H   0  0  0  0  0  0  0  0  0  0  0  0
   -0.9157    0.3502   -1.5484 H   0  0  0  0  0  0  0  0  0  0  0  0
   -3.1294    0.8868    0.2972 H   0  0  0  0  0  0  0  0  0  0  0  0
   -3.2246    0.1602   -1.3448 H   0  0  0  0  0  0  0  0  0  0  0  0
   -2.3511   -2.0220   -0.3976 H   0  0  0  0  0  0  0  0  0  0  0  0
   -2.4659   -1.3356    1.2562 H   0  0  0  0  0  0  0  0  0  0  0  0
   -4.8454   -1.5790   -0.7150 H   0  0  0  0  0  0  0  0  0  0  0  0
   -5.2341    0.1927    0.9682 H   0  0  0  0  0  0  0  0  0  0  0  0
   -4.7212   -0.9119    2.3059 H   0  0  0  0  0  0  0  0  0  0  0  0
   -6.2321   -1.2352    1.3713 H   0  0  0  0  0  0  0  0  0  0  0  0
   -3.9754   -3.8216   -0.0912 H   0  0  0  0  0  0  0  0  0  0  0  0
   -4.0674   -3.3894    1.6616 H   0  0  0  0  0  0  0  0  0  0  0  0
   -5.5731   -3.5115    0.6686 H   0  0  0  0  0  0  0  0  0  0  0  0
  1  2  1  0
  1  3  1  0
  3  4  1  0
  4  5  1  0
  4  6  2  0
  1  7  1  0
  7  8  2  0
  7  9  1  0
  9 10  1  0
 10 11  1  0
 11 12  1  0
 12 13  1  0
 12 14  1  0
 10 15  1  0
 15 16  2  0
 15 17  1  0
 17 18  1  0
 18 19  1  0
 19 20  1  0
 20 21  1  0
 20 22  1  0
  1 23  1  6
  2 24  1  0
  3 25  1  0
  3 26  1  0
  5 27  1  0
  9 28  1  0
 10 29  1  1
 11 30  1  0
 11 31  1  0
 12 32  1  0
 13 33  1  0
 13 34  1  0
 13 35  1  0
 14 36  1  0
 14 37  1  0
 14 38  1  0
 17 39  1  0
 18 40  1  0
 18 41  1  0
 19 42  1  0
 19 43  1  0
 20 44  1  0
 21 45  1  0
 21 46  1  0
 21 47  1  0
 22 48  1  0
 22 49  1  0
 22 50  1  0
M  END
$$$$
