
     RDKit          3D

 43 47  0  0  0  0  0  0  0  0999 V2000
    0.6241    1.8677    1.1990 C   0  0  2  0  0  0  0  0  0  0  0  0
    1.9480    1.3253    1.0984 O   0  0  0  0  0  0  0  0  0  0  0  0
    1.9163    0.1167    0.4324 C   0  0  0  0  0  0  0  0  0  0  0  0
    2.9995   -0.5885   -0.0919 C   0  0  0  0  0  0  0  0  0  0  0  0
    4.3025   -0.1640    0.2019 O   0  0  0  0  0  0  0  0  0  0  0  0
    5.4780   -0.7987   -0.2895 C   0  0  0  0  0  0  0  0  0  0  0  0
    2.7154   -1.6935   -0.9323 C   0  0  0  0  0  0  0  0  0  0  0  0
    1.3809   -2.0046   -1.2726 C   0  0  0  0  0  0  0  0  0  0  0  0
    0.3190   -1.2703   -0.7125 C   0  0  0  0  0  0  0  0  0  0  0  0
    0.6332   -0.2809    0.2192 C   0  0  0  0  0  0  0  0  0  0  0  0
   -0.3268    0.6546    0.8822 C   0  0  1  0  0  0  0  0  0  0  0  0
   -0.8708   -0.0046    2.1909 C   0  0  0  0  0  0  0  0  0  0  0  0
   -2.2846   -0.6043    2.0370 C   0  0  0  0  0  0  0  0  0  0  0  0
   -2.4578   -1.2889    0.7387 N   0  0  0  0  0  0  0  0  0  0  0  0
   -3.8173   -1.8403    0.6283 C   0  0  0  0  0  0  0  0  0  0  0  0
   -2.0925   -0.4832   -0.4650 C   0  0  2  0  0  0  0  0  0  0  0  0
   -1.0802   -1.3337   -1.2821 C   0  0  0  0  0  0  0  0  0  0  0  0
   -1.4965    0.9175   -0.0857 C   0  0  2  0  0  0  0  0  0  0  0  0
   -1.0559    1.7596   -1.2935 C   0  0  0  0  0  0  0  0  0  0  0  0
   -0.5669    3.1291   -0.8247 C   0  0  0  0  0  0  0  0  0  0  0  0
    0.5033    3.0342    0.2360 C   0  0  0  0  0  0  0  0  0  0  0  0
    1.2774    3.9709    0.3617 O   0  0  0  0  0  0  0  0  0  0  0  0
    0.4730    2.2634    2.2256 H   0  0  0  0  0  0  0  0  0  0  0  0
    5.4962   -0.7614   -1.3992 H   0  0  0  0  0  0  0  0  0  0  0  0
    6.3686   -0.2636    0.0989 H   0  0  0  0  0  0  0  0  0  0  0  0
    5.5161   -1.8528    0.0578 H   0  0  0  0  0  0  0  0  0  0  0  0
    3.5132   -2.2709   -1.3789 H   0  0  0  0  0  0  0  0  0  0  0  0
    1.1815   -2.7784   -2.0031 H   0  0  0  0  0  0  0  0  0  0  0  0
   -0.9336    0.7433    3.0100 H   0  0  0  0  0  0  0  0  0  0  0  0
   -0.1774   -0.7976    2.5516 H   0  0  0  0  0  0  0  0  0  0  0  0
   -3.0466    0.1992    2.1557 H   0  0  0  0  0  0  0  0  0  0  0  0
   -2.4436   -1.3290    2.8659 H   0  0  0  0  0  0  0  0  0  0  0  0
   -4.0243   -2.5280    1.4763 H   0  0  0  0  0  0  0  0  0  0  0  0
   -4.5761   -1.0266    0.6246 H   0  0  0  0  0  0  0  0  0  0  0  0
   -3.9141   -2.4325   -0.3071 H   0  0  0  0  0  0  0  0  0  0  0  0
   -2.9823   -0.2978   -1.1111 H   0  0  0  0  0  0  0  0  0  0  0  0
   -1.0523   -0.9598   -2.3281 H   0  0  0  0  0  0  0  0  0  0  0  0
   -1.4167   -2.3925   -1.3232 H   0  0  0  0  0  0  0  0  0  0  0  0
   -2.2842    1.5079    0.4346 H   0  0  0  0  0  0  0  0  0  0  0  0
   -0.2418    1.2639   -1.8639 H   0  0  0  0  0  0  0  0  0  0  0  0
   -1.9171    1.8995   -1.9821 H   0  0  0  0  0  0  0  0  0  0  0  0
   -0.1666    3.6783   -1.7047 H   0  0  0  0  0  0  0  0  0  0  0  0
   -1.4199    3.7151   -0.4196 H   0  0  0  0  0  0  0  0  0  0  0  0
  1  2  1  0
  2  3  1  0
  3  4  2  0
  4  5  1  0
  5  6  1  0
  4  7  1  0
  7  8  2  0
  8  9  1  0
  9 10  2  0
 10 11  1  0
 11 12  1  1
 12 13  1  0
 13 14  1  0
 14 15  1  0
 14 16  1  0
 16 17  1  0
 16 18  1  0
 18 19  1  0
 19 20  1  0
 20 21  1  0
 21 22  2  0
 11  1  1  0
 18 11  1  0
 21  1  1  0
 10  3  1  0
 17  9  1  0
  1 23  1  1
  6 24  1  0
  6 25  1  0
  6 26  1  0
  7 27  1  0
  8 28  1  0
 12 29  1  0
 12 30  1  0
 13 31  1  0
 13 32  1  0
 15 33  1  0
 15 34  1  0
 15 35  1  0
 16 36  1  6
 17 37  1  0
 17 38  1  0
 18 39  1  1
 19 40  1  0
 19 41  1  0
 20 42  1  0
 20 43  1  0
M  END
$$$$
