
     RDKit          3D

 32 32  0  0  0  0  0  0  0  0999 V2000
   -5.6022    0.6361   -0.6159 N   0  0  0  0  0  0  0  0  0  0  0  0
   -4.2126    0.3121   -0.6643 C   0  0  0  0  0  0  0  0  0  0  0  0
   -3.3007    1.2832   -0.9235 N   0  0  0  0  0  0  0  0  0  0  0  0
   -1.9705    1.0110   -0.9760 C   0  0  0  0  0  0  0  0  0  0  0  0
   -1.1635    1.9479   -1.2220 O   0  0  0  0  0  0  0  0  0  0  0  0
   -1.5185   -0.2674   -0.7653 N   0  0  0  0  0  0  0  0  0  0  0  0
   -0.0787   -0.5787   -0.8057 C   0  0  0  0  0  0  0  0  0  0  0  0
    0.6297   -0.1687    0.5019 C   0  0  1  0  0  0  0  0  0  0  0  0
    0.1503   -1.0269    1.6821 C   0  0  0  0  0  0  0  0  0  0  0  0
    0.8032   -0.6411    2.8620 O   0  0  0  0  0  0  0  0  0  0  0  0
    2.0261   -0.3621    0.3454 O   0  0  0  0  0  0  0  0  0  0  0  0
    2.6713    0.8580    0.0511 C   0  0  0  0  0  0  0  0  0  0  0  0
    4.4184    0.5277   -0.3066 P   0  0  0  0  0  5  0  0  0  0  0  0
    5.2063    1.9802   -0.6722 O   0  0  0  0  0  0  0  0  0  0  0  0
    4.5281   -0.5207   -1.6299 O   0  0  0  0  0  0  0  0  0  0  0  0
    5.0691   -0.1119    0.8992 O   0  0  0  0  0  0  0  0  0  0  0  0
   -2.4154   -1.2658   -0.5032 C   0  0  0  0  0  0  0  0  0  0  0  0
   -3.7809   -0.9954   -0.4470 C   0  0  0  0  0  0  0  0  0  0  0  0
   -6.3184   -0.0978   -0.4177 H   0  0  0  0  0  0  0  0  0  0  0  0
   -5.9191    1.6175   -0.7794 H   0  0  0  0  0  0  0  0  0  0  0  0
    0.3891   -0.0480   -1.6636 H   0  0  0  0  0  0  0  0  0  0  0  0
    0.0879   -1.6627   -0.9974 H   0  0  0  0  0  0  0  0  0  0  0  0
    0.3605    0.8887    0.7446 H   0  0  0  0  0  0  0  0  0  0  0  0
    0.3243   -2.1085    1.4757 H   0  0  0  0  0  0  0  0  0  0  0  0
   -0.9396   -0.8813    1.8337 H   0  0  0  0  0  0  0  0  0  0  0  0
    1.6868   -1.0938    2.8626 H   0  0  0  0  0  0  0  0  0  0  0  0
    2.2241    1.3473   -0.8426 H   0  0  0  0  0  0  0  0  0  0  0  0
    2.6197    1.5450    0.9244 H   0  0  0  0  0  0  0  0  0  0  0  0
    5.0906    2.5422    0.1352 H   0  0  0  0  0  0  0  0  0  0  0  0
    5.4986   -0.5973   -1.8116 H   0  0  0  0  0  0  0  0  0  0  0  0
   -2.0773   -2.2804   -0.3280 H   0  0  0  0  0  0  0  0  0  0  0  0
   -4.4870   -1.7888   -0.2367 H   0  0  0  0  0  0  0  0  0  0  0  0
  1  2  1  0
  2  3  2  0
  3  4  1  0
  4  5  2  0
  4  6  1  0
  6  7  1  0
  7  8  1  0
  8  9  1  0
  9 10  1  0
  8 11  1  0
 11 12  1  0
 12 13  1  0
 13 14  1  0
 13 15  1  0
 13 16  2  0
  6 17  1  0
 17 18  2  0
 18  2  1  0
  1 19  1  0
  1 20  1  0
  7 21  1  0
  7 22  1  0
  8 23  1  1
  9 24  1  0
  9 25  1  0
 10 26  1  0
 12 27  1  0
 12 28  1  0
 14 29  1  0
 15 30  1  0
 17 31  1  0
 18 32  1  0
M  END
$$$$
