
     RDKit          3D

122121  0  0  0  0  0  0  0  0999 V2000
    9.6924   -2.0100    1.1318 C   0  0  0  0  0  0  0  0  0  0  0  0
   10.3597   -2.3817   -0.1699 C   0  0  0  0  0  0  0  0  0  0  0  0
   11.8296   -1.9381   -0.2075 C   0  0  0  0  0  0  0  0  0  0  0  0
   12.6989   -2.7280    0.7824 C   0  0  0  0  0  0  0  0  0  0  0  0
   14.1680   -2.2889    0.6941 C   0  0  0  0  0  0  0  0  0  0  0  0
   15.0913   -3.1337    1.5855 C   0  0  0  0  0  0  0  0  0  0  0  0
   14.8889   -2.8587    3.0754 C   0  0  0  0  0  0  0  0  0  0  0  0
    9.1432   -0.8101    1.3962 C   0  0  0  0  0  0  0  0  0  0  0  0
    9.0161    0.3161    0.3994 C   0  0  0  0  0  0  0  0  0  0  0  0
    7.7447    0.1906   -0.4569 C   0  0  0  0  0  0  0  0  0  0  0  0
    6.4361    0.2231    0.3525 C   0  0  0  0  0  0  0  0  0  0  0  0
    6.2156    1.5620    1.0796 C   0  0  0  0  0  0  0  0  0  0  0  0
    4.7655    1.7424    1.5520 C   0  0  0  0  0  0  0  0  0  0  0  0
    4.3835    0.7764    2.6864 C   0  0  0  0  0  0  0  0  0  0  0  0
    2.9361    0.9819    3.1544 C   0  0  0  0  0  0  0  0  0  0  0  0
    1.9560    0.5135    2.1226 C   0  0  0  0  0  0  0  0  0  0  0  0
    1.6525   -0.7091    2.0584 O   0  0  0  0  0  0  0  0  0  0  0  0
    1.4206    1.4332    1.2136 O   0  0  0  0  0  0  0  0  0  0  0  0
    0.6196    1.0611    0.0902 C   0  0  1  0  0  0  0  0  0  0  0  0
   -0.1015    2.3075   -0.4326 C   0  0  0  0  0  0  0  0  0  0  0  0
   -0.9839    1.9546   -1.4935 O   0  0  0  0  0  0  0  0  0  0  0  0
   -1.7826    2.8914   -2.1542 C   0  0  0  0  0  0  0  0  0  0  0  0
   -1.7553    4.1085   -1.8240 O   0  0  0  0  0  0  0  0  0  0  0  0
   -2.7110    2.4339   -3.2361 C   0  0  0  0  0  0  0  0  0  0  0  0
   -4.1295    2.1924   -2.7031 C   0  0  0  0  0  0  0  0  0  0  0  0
   -4.1977    0.9756   -1.7629 C   0  0  0  0  0  0  0  0  0  0  0  0
   -5.6139    0.7310   -1.2168 C   0  0  0  0  0  0  0  0  0  0  0  0
   -6.5276    0.0356   -2.2394 C   0  0  0  0  0  0  0  0  0  0  0  0
   -7.9865   -0.0696   -1.7620 C   0  0  0  0  0  0  0  0  0  0  0  0
   -8.1938   -1.0682   -0.6056 C   0  0  0  0  0  0  0  0  0  0  0  0
   -7.9992   -0.4338    0.7496 C   0  0  0  0  0  0  0  0  0  0  0  0
   -8.8784    0.3942    1.3447 C   0  0  0  0  0  0  0  0  0  0  0  0
  -10.2214    0.7895    0.7763 C   0  0  0  0  0  0  0  0  0  0  0  0
  -11.3719    0.2155    1.6123 C   0  0  0  0  0  0  0  0  0  0  0  0
  -11.4786   -1.3134    1.4788 C   0  0  0  0  0  0  0  0  0  0  0  0
  -12.6907   -1.8828    2.2460 C   0  0  0  0  0  0  0  0  0  0  0  0
  -13.8795   -2.2410    1.3379 C   0  0  0  0  0  0  0  0  0  0  0  0
  -14.5250   -1.0072    0.6861 C   0  0  0  0  0  0  0  0  0  0  0  0
  -15.8606   -1.3341    0.0010 C   0  0  0  0  0  0  0  0  0  0  0  0
  -15.6872   -2.2000   -1.2465 C   0  0  0  0  0  0  0  0  0  0  0  0
    1.4983    0.4219   -0.9984 C   0  0  0  0  0  0  0  0  0  0  0  0
    2.5436    1.3024   -1.3353 O   0  0  0  0  0  0  0  0  0  0  0  0
    3.4444    0.6309   -2.6206 P   0  0  0  0  0  5  0  0  0  0  0  0
    3.7318   -1.0184   -2.3544 O   0  0  0  0  0  0  0  0  0  0  0  0
    2.6846    0.8085   -3.9172 O   0  0  0  0  0  0  0  0  0  0  0  0
    4.9540    1.4157   -2.7439 O   0  0  0  0  0  0  0  0  0  0  0  0
    4.7502    2.8010   -2.6007 C   0  0  0  0  0  0  0  0  0  0  0  0
    6.0692    3.5247   -2.8349 C   0  0  0  0  0  0  0  0  0  0  0  0
    5.8785    4.9049   -2.6965 O   0  0  0  0  0  0  0  0  0  0  0  0
    9.6854   -2.7578    1.9197 H   0  0  0  0  0  0  0  0  0  0  0  0
    9.8153   -1.9414   -1.0302 H   0  0  0  0  0  0  0  0  0  0  0  0
   10.3071   -3.4847   -0.2960 H   0  0  0  0  0  0  0  0  0  0  0  0
   12.2145   -2.1017   -1.2378 H   0  0  0  0  0  0  0  0  0  0  0  0
   11.9060   -0.8518    0.0136 H   0  0  0  0  0  0  0  0  0  0  0  0
   12.3233   -2.5556    1.8129 H   0  0  0  0  0  0  0  0  0  0  0  0
   12.6233   -3.8136    0.5529 H   0  0  0  0  0  0  0  0  0  0  0  0
   14.2595   -1.2148    0.9684 H   0  0  0  0  0  0  0  0  0  0  0  0
   14.5133   -2.3986   -0.3574 H   0  0  0  0  0  0  0  0  0  0  0  0
   14.9361   -4.2154    1.3814 H   0  0  0  0  0  0  0  0  0  0  0  0
   16.1451   -2.8915    1.3275 H   0  0  0  0  0  0  0  0  0  0  0  0
   13.8919   -3.2130    3.4092 H   0  0  0  0  0  0  0  0  0  0  0  0
   15.6611   -3.4033    3.6586 H   0  0  0  0  0  0  0  0  0  0  0  0
   14.9870   -1.7729    3.2876 H   0  0  0  0  0  0  0  0  0  0  0  0
    8.7231   -0.6489    2.3849 H   0  0  0  0  0  0  0  0  0  0  0  0
    9.0035    1.2807    0.9481 H   0  0  0  0  0  0  0  0  0  0  0  0
    9.9031    0.3559   -0.2653 H   0  0  0  0  0  0  0  0  0  0  0  0
    7.7332    1.0135   -1.2034 H   0  0  0  0  0  0  0  0  0  0  0  0
    7.7784   -0.7607   -1.0290 H   0  0  0  0  0  0  0  0  0  0  0  0
    5.5982    0.0477   -0.3555 H   0  0  0  0  0  0  0  0  0  0  0  0
    6.4304   -0.6129    1.0830 H   0  0  0  0  0  0  0  0  0  0  0  0
    6.8991    1.6387    1.9524 H   0  0  0  0  0  0  0  0  0  0  0  0
    6.4529    2.3978    0.3859 H   0  0  0  0  0  0  0  0  0  0  0  0
    4.0838    1.6087    0.6888 H   0  0  0  0  0  0  0  0  0  0  0  0
    4.6446    2.7867    1.9142 H   0  0  0  0  0  0  0  0  0  0  0  0
    4.5116   -0.2781    2.3609 H   0  0  0  0  0  0  0  0  0  0  0  0
    5.0613    0.9504    3.5503 H   0  0  0  0  0  0  0  0  0  0  0  0
    2.7557    2.0540    3.3856 H   0  0  0  0  0  0  0  0  0  0  0  0
    2.7744    0.4065    4.0915 H   0  0  0  0  0  0  0  0  0  0  0  0
   -0.1537    0.3281    0.4127 H   0  0  0  0  0  0  0  0  0  0  0  0
    0.6379    3.0573   -0.7905 H   0  0  0  0  0  0  0  0  0  0  0  0
   -0.6892    2.7596    0.3962 H   0  0  0  0  0  0  0  0  0  0  0  0
   -2.3154    1.5050   -3.7011 H   0  0  0  0  0  0  0  0  0  0  0  0
   -2.7505    3.2124   -4.0286 H   0  0  0  0  0  0  0  0  0  0  0  0
   -4.4879    3.1023   -2.1729 H   0  0  0  0  0  0  0  0  0  0  0  0
   -4.7940    2.0266   -3.5763 H   0  0  0  0  0  0  0  0  0  0  0  0
   -3.8310    0.0657   -2.2871 H   0  0  0  0  0  0  0  0  0  0  0  0
   -3.5272    1.1554   -0.8949 H   0  0  0  0  0  0  0  0  0  0  0  0
   -6.0642    1.6925   -0.8856 H   0  0  0  0  0  0  0  0  0  0  0  0
   -5.5174    0.0766   -0.3261 H   0  0  0  0  0  0  0  0  0  0  0  0
   -6.5312    0.6141   -3.1863 H   0  0  0  0  0  0  0  0  0  0  0  0
   -6.1320   -0.9774   -2.4714 H   0  0  0  0  0  0  0  0  0  0  0  0
   -8.5932   -0.4223   -2.6245 H   0  0  0  0  0  0  0  0  0  0  0  0
   -8.3675    0.9406   -1.4983 H   0  0  0  0  0  0  0  0  0  0  0  0
   -9.2121   -1.5079   -0.6627 H   0  0  0  0  0  0  0  0  0  0  0  0
   -7.4859   -1.9184   -0.7112 H   0  0  0  0  0  0  0  0  0  0  0  0
   -7.1007   -0.6957    1.3005 H   0  0  0  0  0  0  0  0  0  0  0  0
   -8.6303    0.7698    2.3334 H   0  0  0  0  0  0  0  0  0  0  0  0
  -10.2857    1.8980    0.8036 H   0  0  0  0  0  0  0  0  0  0  0  0
  -10.3499    0.4897   -0.2833 H   0  0  0  0  0  0  0  0  0  0  0  0
  -11.2298    0.4905    2.6810 H   0  0  0  0  0  0  0  0  0  0  0  0
  -12.3159    0.6881    1.2705 H   0  0  0  0  0  0  0  0  0  0  0  0
  -11.5251   -1.5997    0.4053 H   0  0  0  0  0  0  0  0  0  0  0  0
  -10.5538   -1.7674    1.8973 H   0  0  0  0  0  0  0  0  0  0  0  0
  -13.0226   -1.1897    3.0503 H   0  0  0  0  0  0  0  0  0  0  0  0
  -12.3703   -2.8192    2.7534 H   0  0  0  0  0  0  0  0  0  0  0  0
  -14.6392   -2.7627    1.9601 H   0  0  0  0  0  0  0  0  0  0  0  0
  -13.5391   -2.9522    0.5549 H   0  0  0  0  0  0  0  0  0  0  0  0
  -13.8308   -0.5645   -0.0601 H   0  0  0  0  0  0  0  0  0  0  0  0
  -14.7203   -0.2434    1.4702 H   0  0  0  0  0  0  0  0  0  0  0  0
  -16.3427   -0.3793   -0.3017 H   0  0  0  0  0  0  0  0  0  0  0  0
  -16.5437   -1.8426    0.7156 H   0  0  0  0  0  0  0  0  0  0  0  0
  -14.9703   -1.7275   -1.9512 H   0  0  0  0  0  0  0  0  0  0  0  0
  -15.3253   -3.2130   -0.9739 H   0  0  0  0  0  0  0  0  0  0  0  0
  -16.6663   -2.3090   -1.7588 H   0  0  0  0  0  0  0  0  0  0  0  0
    0.8664    0.1856   -1.8851 H   0  0  0  0  0  0  0  0  0  0  0  0
    1.9118   -0.5279   -0.5940 H   0  0  0  0  0  0  0  0  0  0  0  0
    2.9409   -1.4844   -2.7266 H   0  0  0  0  0  0  0  0  0  0  0  0
    4.0102    3.1775   -3.3444 H   0  0  0  0  0  0  0  0  0  0  0  0
    4.4049    3.0387   -1.5693 H   0  0  0  0  0  0  0  0  0  0  0  0
    6.8201    3.1738   -2.0928 H   0  0  0  0  0  0  0  0  0  0  0  0
    6.4376    3.2966   -3.8601 H   0  0  0  0  0  0  0  0  0  0  0  0
    6.7649    5.3219   -2.8557 H   0  0  0  0  0  0  0  0  0  0  0  0
  1  2  1  0
  2  3  1  0
  3  4  1  0
  4  5  1  0
  5  6  1  0
  6  7  1  0
  1  8  2  0
  8  9  1  0
  9 10  1  0
 10 11  1  0
 11 12  1  0
 12 13  1  0
 13 14  1  0
 14 15  1  0
 15 16  1  0
 16 17  2  0
 16 18  1  0
 18 19  1  0
 19 20  1  0
 20 21  1  0
 21 22  1  0
 22 23  2  0
 22 24  1  0
 24 25  1  0
 25 26  1  0
 26 27  1  0
 27 28  1  0
 28 29  1  0
 29 30  1  0
 30 31  1  0
 31 32  2  0
 32 33  1  0
 33 34  1  0
 34 35  1  0
 35 36  1  0
 36 37  1  0
 37 38  1  0
 38 39  1  0
 39 40  1  0
 19 41  1  0
 41 42  1  0
 42 43  1  0
 43 44  1  0
 43 45  2  0
 43 46  1  0
 46 47  1  0
 47 48  1  0
 48 49  1  0
  1 50  1  0
  2 51  1  0
  2 52  1  0
  3 53  1  0
  3 54  1  0
  4 55  1  0
  4 56  1  0
  5 57  1  0
  5 58  1  0
  6 59  1  0
  6 60  1  0
  7 61  1  0
  7 62  1  0
  7 63  1  0
  8 64  1  0
  9 65  1  0
  9 66  1  0
 10 67  1  0
 10 68  1  0
 11 69  1  0
 11 70  1  0
 12 71  1  0
 12 72  1  0
 13 73  1  0
 13 74  1  0
 14 75  1  0
 14 76  1  0
 15 77  1  0
 15 78  1  0
 19 79  1  1
 20 80  1  0
 20 81  1  0
 24 82  1  0
 24 83  1  0
 25 84  1  0
 25 85  1  0
 26 86  1  0
 26 87  1  0
 27 88  1  0
 27 89  1  0
 28 90  1  0
 28 91  1  0
 29 92  1  0
 29 93  1  0
 30 94  1  0
 30 95  1  0
 31 96  1  0
 32 97  1  0
 33 98  1  0
 33 99  1  0
 34100  1  0
 34101  1  0
 35102  1  0
 35103  1  0
 36104  1  0
 36105  1  0
 37106  1  0
 37107  1  0
 38108  1  0
 38109  1  0
 39110  1  0
 39111  1  0
 40112  1  0
 40113  1  0
 40114  1  0
 41115  1  0
 41116  1  0
 44117  1  0
 47118  1  0
 47119  1  0
 48120  1  0
 48121  1  0
 49122  1  0
M  END
$$$$
