
     RDKit          3D

 56 59  0  0  0  0  0  0  0  0999 V2000
    7.1367   -2.0718   -0.1974 O   0  0  0  0  0  0  0  0  0  0  0  0
    5.7663   -2.1999   -0.4550 C   0  0  0  0  0  0  0  0  0  0  0  0
    4.9891   -1.2137    0.4172 C   0  0  0  0  0  0  0  0  0  0  0  0
    3.5344   -1.3734    0.2083 N   0  0  0  0  0  0  0  0  0  0  0  0
    3.0549   -0.6616   -1.0061 C   0  0  0  0  0  0  0  0  0  0  0  0
    2.2920    0.6279   -0.6698 C   0  0  0  0  0  0  0  0  0  0  0  0
    1.0998    0.3460    0.1657 N   0  0  0  0  0  0  0  0  0  0  0  0
    0.6042    1.5697    0.8353 C   0  0  0  0  0  0  0  0  0  0  0  0
   -0.0360    2.5562   -0.1581 C   0  0  0  0  0  0  0  0  0  0  0  0
   -1.0547    1.9051   -1.1076 C   0  0  0  0  0  0  0  0  0  0  0  0
   -2.1753    1.2991   -0.3673 N   0  0  0  0  0  0  0  0  0  0  0  0
   -3.2703    2.1067    0.1174 C   0  0  0  0  0  0  0  0  0  0  0  0
   -3.9486    2.9954   -0.7358 C   0  0  0  0  0  0  0  0  0  0  0  0
   -5.1077    3.6448   -0.2996 C   0  0  0  0  0  0  0  0  0  0  0  0
   -5.6129    3.3970    0.9792 C   0  0  0  0  0  0  0  0  0  0  0  0
   -4.9530    2.5092    1.8322 C   0  0  0  0  0  0  0  0  0  0  0  0
   -3.7794    1.8758    1.4102 C   0  0  0  0  0  0  0  0  0  0  0  0
   -2.8673    0.8300    2.5480 S   0  0  0  0  0  0  0  0  0  0  0  0
   -2.5693   -0.4482    1.3224 C   0  0  0  0  0  0  0  0  0  0  0  0
   -2.1395   -0.0891    0.0320 C   0  0  0  0  0  0  0  0  0  0  0  0
   -1.8123   -1.1000   -0.8883 C   0  0  0  0  0  0  0  0  0  0  0  0
   -1.8718   -2.4544   -0.5163 C   0  0  0  0  0  0  0  0  0  0  0  0
   -2.3435   -2.7922    0.7637 C   0  0  0  0  0  0  0  0  0  0  0  0
   -2.6886   -1.7937    1.6767 C   0  0  0  0  0  0  0  0  0  0  0  0
   -1.5366   -3.5300   -1.5184 C   0  0  0  0  0  0  0  0  0  0  0  0
   -1.1229   -4.6864   -0.8798 F   0  0  0  0  0  0  0  0  0  0  0  0
   -0.5168   -3.1105   -2.3552 F   0  0  0  0  0  0  0  0  0  0  0  0
   -2.6571   -3.8106   -2.2776 F   0  0  0  0  0  0  0  0  0  0  0  0
    1.3032   -0.7705    1.1252 C   0  0  0  0  0  0  0  0  0  0  0  0
    2.7865   -1.0109    1.4335 C   0  0  0  0  0  0  0  0  0  0  0  0
    7.5891   -2.7397   -0.7756 H   0  0  0  0  0  0  0  0  0  0  0  0
    5.4361   -3.2362   -0.2180 H   0  0  0  0  0  0  0  0  0  0  0  0
    5.5717   -1.9991   -1.5311 H   0  0  0  0  0  0  0  0  0  0  0  0
    5.3111   -0.1695    0.2016 H   0  0  0  0  0  0  0  0  0  0  0  0
    5.2595   -1.4319    1.4760 H   0  0  0  0  0  0  0  0  0  0  0  0
    2.3727   -1.3402   -1.5623 H   0  0  0  0  0  0  0  0  0  0  0  0
    3.8848   -0.4116   -1.7031 H   0  0  0  0  0  0  0  0  0  0  0  0
    1.9699    1.0996   -1.6223 H   0  0  0  0  0  0  0  0  0  0  0  0
    2.9899    1.3289   -0.1585 H   0  0  0  0  0  0  0  0  0  0  0  0
    1.4249    2.0759    1.3908 H   0  0  0  0  0  0  0  0  0  0  0  0
   -0.1732    1.3167    1.5850 H   0  0  0  0  0  0  0  0  0  0  0  0
    0.7622    3.0358   -0.7641 H   0  0  0  0  0  0  0  0  0  0  0  0
   -0.5388    3.3662    0.4138 H   0  0  0  0  0  0  0  0  0  0  0  0
   -1.4259    2.6812   -1.8065 H   0  0  0  0  0  0  0  0  0  0  0  0
   -0.5418    1.1557   -1.7424 H   0  0  0  0  0  0  0  0  0  0  0  0
   -3.6168    3.1535   -1.7524 H   0  0  0  0  0  0  0  0  0  0  0  0
   -5.6285    4.3233   -0.9628 H   0  0  0  0  0  0  0  0  0  0  0  0
   -6.5157    3.8942    1.3097 H   0  0  0  0  0  0  0  0  0  0  0  0
   -5.3405    2.3334    2.8276 H   0  0  0  0  0  0  0  0  0  0  0  0
   -1.5444   -0.8401   -1.9035 H   0  0  0  0  0  0  0  0  0  0  0  0
   -2.4412   -3.8287    1.0607 H   0  0  0  0  0  0  0  0  0  0  0  0
   -3.0227   -2.0677    2.6693 H   0  0  0  0  0  0  0  0  0  0  0  0
    0.8819   -1.6961    0.6774 H   0  0  0  0  0  0  0  0  0  0  0  0
    0.7570   -0.6165    2.0821 H   0  0  0  0  0  0  0  0  0  0  0  0
    2.8692   -1.8415    2.1675 H   0  0  0  0  0  0  0  0  0  0  0  0
    3.2058   -0.0915    1.9033 H   0  0  0  0  0  0  0  0  0  0  0  0
  1  2  1  0
  2  3  1  0
  3  4  1  0
  4  5  1  0
  5  6  1  0
  6  7  1  0
  7  8  1  0
  8  9  1  0
  9 10  1  0
 10 11  1  0
 11 12  1  0
 12 13  2  0
 13 14  1  0
 14 15  2  0
 15 16  1  0
 16 17  2  0
 17 18  1  0
 18 19  1  0
 19 20  2  0
 20 21  1  0
 21 22  2  0
 22 23  1  0
 23 24  2  0
 22 25  1  0
 25 26  1  0
 25 27  1  0
 25 28  1  0
  7 29  1  0
 29 30  1  0
 30  4  1  0
 20 11  1  0
 17 12  1  0
 24 19  1  0
  1 31  1  0
  2 32  1  0
  2 33  1  0
  3 34  1  0
  3 35  1  0
  5 36  1  0
  5 37  1  0
  6 38  1  0
  6 39  1  0
  8 40  1  0
  8 41  1  0
  9 42  1  0
  9 43  1  0
 10 44  1  0
 10 45  1  0
 13 46  1  0
 14 47  1  0
 15 48  1  0
 16 49  1  0
 21 50  1  0
 23 51  1  0
 24 52  1  0
 29 53  1  0
 29 54  1  0
 30 55  1  0
 30 56  1  0
M  END
$$$$
