
     RDKit          3D

 42 45  0  0  0  0  0  0  0  0999 V2000
   -4.7807   -2.6243   -1.3866 O   0  0  0  0  0  0  0  0  0  0  0  0
   -3.8318   -1.9759   -2.1708 C   0  0  0  0  0  0  0  0  0  0  0  0
   -3.1233   -2.6370   -2.9761 O   0  0  0  0  0  0  0  0  0  0  0  0
   -3.6699   -0.4918   -2.0714 C   0  0  0  0  0  0  0  0  0  0  0  0
   -3.3885   -0.1015   -0.6846 N   0  0  0  0  0  0  0  0  0  0  0  0
   -2.1733   -0.0096   -0.0696 C   0  0  0  0  0  0  0  0  0  0  0  0
   -2.3267    0.3980    1.2552 C   0  0  0  0  0  0  0  0  0  0  0  0
   -3.6822    0.5388    1.4406 C   0  0  0  0  0  0  0  0  0  0  0  0
   -4.3985    0.9025    2.5790 C   0  0  0  0  0  0  0  0  0  0  0  0
   -5.8004    0.9454    2.4871 C   0  0  0  0  0  0  0  0  0  0  0  0
   -6.4463    0.6221    1.2748 C   0  0  0  0  0  0  0  0  0  0  0  0
   -5.6967    0.2554    0.1425 C   0  0  0  0  0  0  0  0  0  0  0  0
   -4.3013    0.2266    0.2574 C   0  0  0  0  0  0  0  0  0  0  0  0
   -0.8656   -0.3341   -0.6858 C   0  0  0  0  0  0  0  0  0  0  0  0
   -0.8190   -1.0867   -1.6942 O   0  0  0  0  0  0  0  0  0  0  0  0
    0.3461    0.2091   -0.1338 N   0  0  0  0  0  0  0  0  0  0  0  0
    1.6679   -0.2386   -0.4690 C   0  0  0  0  0  0  0  0  0  0  0  0
    2.7774    0.3979   -0.0379 N   0  0  0  0  0  0  0  0  0  0  0  0
    3.9193   -0.2203   -0.4491 C   0  0  0  0  0  0  0  0  0  0  0  0
    3.7146   -1.3778   -1.2037 C   0  0  0  0  0  0  0  0  0  0  0  0
    2.0574   -1.6136   -1.3602 S   0  0  0  0  0  0  0  0  0  0  0  0
    5.2647    0.2870   -0.0837 C   0  0  0  0  0  0  0  0  0  0  0  0
    6.2942   -0.6309    0.2021 C   0  0  0  0  0  0  0  0  0  0  0  0
    7.5658   -0.1842    0.5687 C   0  0  0  0  0  0  0  0  0  0  0  0
    7.8298    1.1823    0.6537 C   0  0  0  0  0  0  0  0  0  0  0  0
    6.8240    2.1066    0.3685 C   0  0  0  0  0  0  0  0  0  0  0  0
    5.5439    1.6730   -0.0001 C   0  0  0  0  0  0  0  0  0  0  0  0
    4.3515    2.9035   -0.4096 Cl  0  0  0  0  0  0  0  0  0  0  0  0
   -4.9060   -3.6277   -1.4460 H   0  0  0  0  0  0  0  0  0  0  0  0
   -2.8604   -0.1367   -2.7434 H   0  0  0  0  0  0  0  0  0  0  0  0
   -4.5983   -0.0021   -2.4310 H   0  0  0  0  0  0  0  0  0  0  0  0
   -1.5537    0.5399    1.9991 H   0  0  0  0  0  0  0  0  0  0  0  0
   -3.8938    1.1421    3.5061 H   0  0  0  0  0  0  0  0  0  0  0  0
   -6.3877    1.2240    3.3524 H   0  0  0  0  0  0  0  0  0  0  0  0
   -7.5266    0.6531    1.2168 H   0  0  0  0  0  0  0  0  0  0  0  0
   -6.1990   -0.0023   -0.7796 H   0  0  0  0  0  0  0  0  0  0  0  0
    0.2739    1.0062    0.5370 H   0  0  0  0  0  0  0  0  0  0  0  0
    4.4817   -2.0126   -1.6266 H   0  0  0  0  0  0  0  0  0  0  0  0
    6.1111   -1.6973    0.1625 H   0  0  0  0  0  0  0  0  0  0  0  0
    8.3467   -0.8998    0.7916 H   0  0  0  0  0  0  0  0  0  0  0  0
    8.8162    1.5261    0.9372 H   0  0  0  0  0  0  0  0  0  0  0  0
    7.0436    3.1653    0.4265 H   0  0  0  0  0  0  0  0  0  0  0  0
  1  2  1  0
  2  3  2  0
  2  4  1  0
  4  5  1  0
  5  6  1  0
  6  7  2  0
  7  8  1  0
  8  9  2  0
  9 10  1  0
 10 11  2  0
 11 12  1  0
 12 13  2  0
  6 14  1  0
 14 15  2  0
 14 16  1  0
 16 17  1  0
 17 18  2  0
 18 19  1  0
 19 20  2  0
 20 21  1  0
 19 22  1  0
 22 23  2  0
 23 24  1  0
 24 25  2  0
 25 26  1  0
 26 27  2  0
 27 28  1  0
 13  5  1  0
 21 17  1  0
 27 22  1  0
 13  8  1  0
  1 29  1  0
  4 30  1  0
  4 31  1  0
  7 32  1  0
  9 33  1  0
 10 34  1  0
 11 35  1  0
 12 36  1  0
 16 37  1  0
 20 38  1  0
 23 39  1  0
 24 40  1  0
 25 41  1  0
 26 42  1  0
M  END
$$$$
