
     RDKit          3D

 67 70  0  0  0  0  0  0  0  0999 V2000
    0.2389   -7.7629   -1.9186 C   0  0  0  0  0  0  0  0  0  0  0  0
    0.3410   -6.3122   -1.7270 N   0  0  0  0  0  0  0  0  0  0  0  0
    1.5022   -5.5882   -2.2568 C   0  0  0  0  0  0  0  0  0  0  0  0
   -0.7335   -5.6213   -1.0479 C   0  0  0  0  0  0  0  0  0  0  0  0
   -1.7901   -6.2534   -0.7682 O   0  0  0  0  0  0  0  0  0  0  0  0
   -0.6680   -4.1361   -0.7342 C   0  0  1  0  0  0  0  0  0  0  0  0
   -1.3739   -3.3151   -1.8453 C   0  0  0  0  0  0  0  0  0  0  0  0
   -2.7741   -2.8586   -1.4279 C   0  0  0  0  0  0  0  0  0  0  0  0
   -2.7441   -1.9604   -0.1659 C   0  0  2  0  0  0  0  0  0  0  0  0
   -2.6221   -0.5456   -0.5413 N   0  0  0  0  0  0  0  0  0  0  0  0
   -3.0186    0.5115    0.3470 C   0  0  0  0  0  0  0  0  0  0  0  0
   -3.7033    0.2470    1.3723 O   0  0  0  0  0  0  0  0  0  0  0  0
   -2.6019    1.9029    0.0924 C   0  0  0  0  0  0  0  0  0  0  0  0
   -1.9149    2.1705   -0.9302 O   0  0  0  0  0  0  0  0  0  0  0  0
   -2.9980    2.9503    0.9932 N   0  0  0  0  0  0  0  0  0  0  0  0
   -2.3622    4.2355    1.0800 C   0  0  0  0  0  0  0  0  0  0  0  0
   -3.0795    5.2934    1.5509 N   0  0  0  0  0  0  0  0  0  0  0  0
   -2.5338    6.5298    1.7000 C   0  0  0  0  0  0  0  0  0  0  0  0
   -1.1914    6.7437    1.3811 C   0  0  0  0  0  0  0  0  0  0  0  0
   -0.4733    8.3316    1.5779 Cl  0  0  0  0  0  0  0  0  0  0  0  0
   -0.4242    5.6751    0.9152 C   0  0  0  0  0  0  0  0  0  0  0  0
   -1.0035    4.4140    0.7638 C   0  0  0  0  0  0  0  0  0  0  0  0
   -1.6383   -2.3659    0.8612 C   0  0  1  0  0  0  0  0  0  0  0  0
   -1.2188   -3.8370    0.6876 C   0  0  0  0  0  0  0  0  0  0  0  0
   -0.4585   -1.4913    0.7675 N   0  0  0  0  0  0  0  0  0  0  0  0
   -0.1835   -0.4448    1.7135 C   0  0  0  0  0  0  0  0  0  0  0  0
   -0.8283   -0.3767    2.7945 O   0  0  0  0  0  0  0  0  0  0  0  0
    0.8424    0.5668    1.4219 C   0  0  0  0  0  0  0  0  0  0  0  0
    1.6067    0.5539    0.3047 N   0  0  0  0  0  0  0  0  0  0  0  0
    2.4758    1.5973    0.2830 C   0  0  0  0  0  0  0  0  0  0  0  0
    2.3791    2.4633    1.3568 C   0  0  0  0  0  0  0  0  0  0  0  0
    3.3041    3.6225    1.5743 C   0  0  0  0  0  0  0  0  0  0  0  0
    4.0088    4.0050    0.3273 N   0  0  0  0  0  0  0  0  0  0  0  0
    3.1770    4.8661   -0.5302 C   0  0  0  0  0  0  0  0  0  0  0  0
    4.5382    2.8293   -0.4065 C   0  0  0  0  0  0  0  0  0  0  0  0
    3.4330    1.8417   -0.8394 C   0  0  0  0  0  0  0  0  0  0  0  0
    1.2124    1.8820    2.4169 S   0  0  0  0  0  0  0  0  0  0  0  0
    1.1389   -8.1791   -2.4180 H   0  0  0  0  0  0  0  0  0  0  0  0
    0.1323   -8.2635   -0.9330 H   0  0  0  0  0  0  0  0  0  0  0  0
   -0.6474   -7.9968   -2.5454 H   0  0  0  0  0  0  0  0  0  0  0  0
    2.1164   -5.1966   -1.4193 H   0  0  0  0  0  0  0  0  0  0  0  0
    1.1640   -4.7492   -2.9009 H   0  0  0  0  0  0  0  0  0  0  0  0
    2.1489   -6.2453   -2.8752 H   0  0  0  0  0  0  0  0  0  0  0  0
    0.3952   -3.8215   -0.7185 H   0  0  0  0  0  0  0  0  0  0  0  0
   -1.4490   -3.9019   -2.7876 H   0  0  0  0  0  0  0  0  0  0  0  0
   -0.7668   -2.4169   -2.0907 H   0  0  0  0  0  0  0  0  0  0  0  0
   -3.2598   -2.3222   -2.2722 H   0  0  0  0  0  0  0  0  0  0  0  0
   -3.3924   -3.7610   -1.2245 H   0  0  0  0  0  0  0  0  0  0  0  0
   -3.7343   -2.1029    0.3231 H   0  0  0  0  0  0  0  0  0  0  0  0
   -2.1363   -0.3011   -1.4341 H   0  0  0  0  0  0  0  0  0  0  0  0
   -3.8401    2.7935    1.5916 H   0  0  0  0  0  0  0  0  0  0  0  0
   -3.1435    7.3426    2.0720 H   0  0  0  0  0  0  0  0  0  0  0  0
    0.6209    5.8195    0.6813 H   0  0  0  0  0  0  0  0  0  0  0  0
   -0.3876    3.5898    0.4329 H   0  0  0  0  0  0  0  0  0  0  0  0
   -2.0786   -2.2796    1.8791 H   0  0  0  0  0  0  0  0  0  0  0  0
   -0.4473   -4.0960    1.4458 H   0  0  0  0  0  0  0  0  0  0  0  0
   -2.1102   -4.4650    0.9066 H   0  0  0  0  0  0  0  0  0  0  0  0
    0.1231   -1.5314   -0.0980 H   0  0  0  0  0  0  0  0  0  0  0  0
    2.7340    4.4829    1.9889 H   0  0  0  0  0  0  0  0  0  0  0  0
    4.0574    3.3302    2.3362 H   0  0  0  0  0  0  0  0  0  0  0  0
    2.9974    5.8363   -0.0208 H   0  0  0  0  0  0  0  0  0  0  0  0
    2.1976    4.3918   -0.7569 H   0  0  0  0  0  0  0  0  0  0  0  0
    3.7017    5.0899   -1.4837 H   0  0  0  0  0  0  0  0  0  0  0  0
    5.2629    2.2944    0.2464 H   0  0  0  0  0  0  0  0  0  0  0  0
    5.1078    3.1620   -1.3015 H   0  0  0  0  0  0  0  0  0  0  0  0
    3.8973    0.8811   -1.1488 H   0  0  0  0  0  0  0  0  0  0  0  0
    2.8759    2.2524   -1.7079 H   0  0  0  0  0  0  0  0  0  0  0  0
  1  2  1  0
  2  3  1  0
  2  4  1  0
  4  5  2  0
  4  6  1  0
  6  7  1  0
  7  8  1  0
  8  9  1  0
  9 10  1  0
 10 11  1  0
 11 12  2  0
 11 13  1  0
 13 14  2  0
 13 15  1  0
 15 16  1  0
 16 17  2  0
 17 18  1  0
 18 19  2  0
 19 20  1  0
 19 21  1  0
 21 22  2  0
  9 23  1  0
 23 24  1  0
 23 25  1  0
 25 26  1  0
 26 27  2  0
 26 28  1  0
 28 29  2  0
 29 30  1  0
 30 31  2  0
 31 32  1  0
 32 33  1  0
 33 34  1  0
 33 35  1  0
 35 36  1  0
 31 37  1  0
 24  6  1  0
 37 28  1  0
 22 16  1  0
 36 30  1  0
  1 38  1  0
  1 39  1  0
  1 40  1  0
  3 41  1  0
  3 42  1  0
  3 43  1  0
  6 44  1  1
  7 45  1  0
  7 46  1  0
  8 47  1  0
  8 48  1  0
  9 49  1  1
 10 50  1  0
 15 51  1  0
 18 52  1  0
 21 53  1  0
 22 54  1  0
 23 55  1  1
 24 56  1  0
 24 57  1  0
 25 58  1  0
 32 59  1  0
 32 60  1  0
 34 61  1  0
 34 62  1  0
 34 63  1  0
 35 64  1  0
 35 65  1  0
 36 66  1  0
 36 67  1  0
M  END
$$$$
