
     RDKit          3D

 36 37  0  0  0  0  0  0  0  0999 V2000
    0.9029    2.0209   -0.0481 C   0  0  1  0  0  0  0  0  0  0  0  0
    2.0060    3.4753   -0.0004 S   0  0  0  0  0  0  0  0  0  0  0  0
   -0.3282    2.2698   -0.8724 C   0  0  0  0  0  0  0  0  0  0  0  0
   -0.5968    0.9156   -1.5289 C   0  0  1  0  0  0  0  0  0  0  0  0
    0.5135    0.0626   -1.3262 O   0  0  0  0  0  0  0  0  0  0  0  0
    1.5440    0.8398   -0.7620 C   0  0  2  0  0  0  0  0  0  0  0  0
    2.3828   -0.0183    0.1894 C   0  0  0  0  0  0  0  0  0  0  0  0
    2.9771   -1.0666   -0.5392 O   0  0  0  0  0  0  0  0  0  0  0  0
    3.8583   -2.0447    0.5450 P   0  0  0  0  0  5  0  0  0  0  0  0
    4.9808   -1.1110    1.4024 O   0  0  0  0  0  0  0  0  0  0  0  0
    4.6822   -3.2309   -0.3363 O   0  0  0  0  0  0  0  0  0  0  0  0
    2.9145   -2.7174    1.5170 O   0  0  0  0  0  0  0  0  0  0  0  0
   -1.8231    0.3017   -0.9755 N   0  0  0  0  0  0  0  0  0  0  0  0
   -1.7679   -0.3568    0.2232 C   0  0  0  0  0  0  0  0  0  0  0  0
   -2.9148   -0.9281    0.7830 C   0  0  0  0  0  0  0  0  0  0  0  0
   -2.8486   -1.6378    2.1070 C   0  0  0  0  0  0  0  0  0  0  0  0
   -4.1272   -0.7719    0.1025 C   0  0  0  0  0  0  0  0  0  0  0  0
   -5.1931   -1.2519    0.5760 O   0  0  0  0  0  0  0  0  0  0  0  0
   -4.1595   -0.0932   -1.0736 N   0  0  0  0  0  0  0  0  0  0  0  0
   -3.0315    0.4468   -1.6106 C   0  0  0  0  0  0  0  0  0  0  0  0
   -3.1152    1.0869   -2.6950 O   0  0  0  0  0  0  0  0  0  0  0  0
    0.6032    1.7453    0.9882 H   0  0  0  0  0  0  0  0  0  0  0  0
    1.0719    4.2483    0.7155 H   0  0  0  0  0  0  0  0  0  0  0  0
   -1.1736    2.6163   -0.2377 H   0  0  0  0  0  0  0  0  0  0  0  0
   -0.1329    3.0311   -1.6604 H   0  0  0  0  0  0  0  0  0  0  0  0
   -0.6977    1.0604   -2.6277 H   0  0  0  0  0  0  0  0  0  0  0  0
    2.1977    1.2040   -1.5877 H   0  0  0  0  0  0  0  0  0  0  0  0
    3.1654    0.6290    0.6460 H   0  0  0  0  0  0  0  0  0  0  0  0
    1.7168   -0.4189    0.9881 H   0  0  0  0  0  0  0  0  0  0  0  0
    5.5657   -0.7195    0.7057 H   0  0  0  0  0  0  0  0  0  0  0  0
    5.2315   -3.7088    0.3352 H   0  0  0  0  0  0  0  0  0  0  0  0
   -0.8283   -0.4407    0.7556 H   0  0  0  0  0  0  0  0  0  0  0  0
   -3.4030   -2.5985    2.0533 H   0  0  0  0  0  0  0  0  0  0  0  0
   -3.3024   -0.9984    2.8928 H   0  0  0  0  0  0  0  0  0  0  0  0
   -1.7991   -1.8639    2.3927 H   0  0  0  0  0  0  0  0  0  0  0  0
   -5.0715    0.0235   -1.5723 H   0  0  0  0  0  0  0  0  0  0  0  0
  1  2  1  0
  1  3  1  0
  3  4  1  0
  4  5  1  0
  5  6  1  0
  6  7  1  0
  7  8  1  0
  8  9  1  0
  9 10  1  0
  9 11  1  0
  9 12  2  0
  4 13  1  0
 13 14  1  0
 14 15  2  0
 15 16  1  0
 15 17  1  0
 17 18  2  0
 17 19  1  0
 19 20  1  0
 20 21  2  0
  6  1  1  0
 20 13  1  0
  1 22  1  1
  2 23  1  0
  3 24  1  0
  3 25  1  0
  4 26  1  6
  6 27  1  6
  7 28  1  0
  7 29  1  0
 10 30  1  0
 11 31  1  0
 14 32  1  0
 16 33  1  0
 16 34  1  0
 16 35  1  0
 19 36  1  0
M  END
$$$$
