
     RDKit          3D

 49 50  0  0  0  0  0  0  0  0999 V2000
    4.5365    0.4218    2.4377 C   0  0  0  0  0  0  0  0  0  0  0  0
    3.5082    1.3308    1.7643 C   0  0  0  0  0  0  0  0  0  0  0  0
    2.0769    0.7776    1.8558 C   0  0  0  0  0  0  0  0  0  0  0  0
    1.8120   -0.4360    0.9508 C   0  0  0  0  0  0  0  0  0  0  0  0
    1.8883   -0.0526   -0.4852 N   0  0  0  0  0  0  0  0  0  0  0  0
    3.1163   -0.5593   -1.1526 C   0  0  0  0  0  0  0  0  0  0  0  0
    2.9153   -1.8956   -1.9062 C   0  0  0  0  0  0  0  0  0  0  0  0
    1.7606   -2.7159   -1.3267 C   0  0  0  0  0  0  0  0  0  0  0  0
    0.4418   -1.9219   -1.3237 C   0  0  0  0  0  0  0  0  0  0  0  0
    0.6717   -0.3879   -1.2692 C   0  0  1  0  0  0  0  0  0  0  0  0
   -0.5355    0.3877   -0.7841 C   0  0  0  0  0  0  0  0  0  0  0  0
   -0.3728    1.5515   -0.3260 O   0  0  0  0  0  0  0  0  0  0  0  0
   -1.8663   -0.1287   -0.9423 N   0  0  0  0  0  0  0  0  0  0  0  0
   -3.0051    0.5156   -0.3492 C   0  0  0  0  0  0  0  0  0  0  0  0
   -3.1378    0.5925    1.0586 C   0  0  0  0  0  0  0  0  0  0  0  0
   -2.1091   -0.0081    1.9792 C   0  0  0  0  0  0  0  0  0  0  0  0
   -4.2460    1.2517    1.6126 C   0  0  0  0  0  0  0  0  0  0  0  0
   -5.2345    1.7890    0.7891 C   0  0  0  0  0  0  0  0  0  0  0  0
   -5.1272    1.6829   -0.5968 C   0  0  0  0  0  0  0  0  0  0  0  0
   -4.0150    1.0545   -1.1780 C   0  0  0  0  0  0  0  0  0  0  0  0
   -3.9137    0.9589   -2.6762 C   0  0  0  0  0  0  0  0  0  0  0  0
    5.5333    0.9101    2.4104 H   0  0  0  0  0  0  0  0  0  0  0  0
    4.6143   -0.5514    1.9125 H   0  0  0  0  0  0  0  0  0  0  0  0
    4.2601    0.2446    3.4988 H   0  0  0  0  0  0  0  0  0  0  0  0
    3.7935    1.5093    0.7065 H   0  0  0  0  0  0  0  0  0  0  0  0
    3.5332    2.3156    2.2793 H   0  0  0  0  0  0  0  0  0  0  0  0
    1.3691    1.5888    1.5853 H   0  0  0  0  0  0  0  0  0  0  0  0
    1.8564    0.4992    2.9096 H   0  0  0  0  0  0  0  0  0  0  0  0
    0.8033   -0.8197    1.2147 H   0  0  0  0  0  0  0  0  0  0  0  0
    2.5102   -1.2609    1.2081 H   0  0  0  0  0  0  0  0  0  0  0  0
    3.4578    0.2062   -1.8819 H   0  0  0  0  0  0  0  0  0  0  0  0
    3.9532   -0.6709   -0.4301 H   0  0  0  0  0  0  0  0  0  0  0  0
    2.7007   -1.6863   -2.9774 H   0  0  0  0  0  0  0  0  0  0  0  0
    3.8520   -2.4925   -1.8654 H   0  0  0  0  0  0  0  0  0  0  0  0
    1.6328   -3.6455   -1.9227 H   0  0  0  0  0  0  0  0  0  0  0  0
    2.0169   -3.0264   -0.2913 H   0  0  0  0  0  0  0  0  0  0  0  0
   -0.1238   -2.1662   -2.2495 H   0  0  0  0  0  0  0  0  0  0  0  0
   -0.1712   -2.2591   -0.4593 H   0  0  0  0  0  0  0  0  0  0  0  0
    0.8323   -0.0416   -2.3156 H   0  0  0  0  0  0  0  0  0  0  0  0
   -2.0394   -0.8911   -1.6339 H   0  0  0  0  0  0  0  0  0  0  0  0
   -2.5436   -0.2192    2.9795 H   0  0  0  0  0  0  0  0  0  0  0  0
   -1.2617    0.6970    2.1051 H   0  0  0  0  0  0  0  0  0  0  0  0
   -1.7340   -0.9703    1.5716 H   0  0  0  0  0  0  0  0  0  0  0  0
   -4.3533    1.3386    2.6869 H   0  0  0  0  0  0  0  0  0  0  0  0
   -6.0911    2.2847    1.2275 H   0  0  0  0  0  0  0  0  0  0  0  0
   -5.9111    2.0997   -1.2172 H   0  0  0  0  0  0  0  0  0  0  0  0
   -4.0517   -0.0965   -2.9915 H   0  0  0  0  0  0  0  0  0  0  0  0
   -2.9172    1.3147   -3.0134 H   0  0  0  0  0  0  0  0  0  0  0  0
   -4.6856    1.5802   -3.1784 H   0  0  0  0  0  0  0  0  0  0  0  0
  1  2  1  0
  2  3  1  0
  3  4  1  0
  4  5  1  0
  5  6  1  0
  6  7  1  0
  7  8  1  0
  8  9  1  0
  9 10  1  0
 10 11  1  0
 11 12  2  0
 11 13  1  0
 13 14  1  0
 14 15  2  0
 15 16  1  0
 15 17  1  0
 17 18  2  0
 18 19  1  0
 19 20  2  0
 20 21  1  0
 10  5  1  0
 20 14  1  0
  1 22  1  0
  1 23  1  0
  1 24  1  0
  2 25  1  0
  2 26  1  0
  3 27  1  0
  3 28  1  0
  4 29  1  0
  4 30  1  0
  6 31  1  0
  6 32  1  0
  7 33  1  0
  7 34  1  0
  8 35  1  0
  8 36  1  0
  9 37  1  0
  9 38  1  0
 10 39  1  6
 13 40  1  0
 16 41  1  0
 16 42  1  0
 16 43  1  0
 17 44  1  0
 18 45  1  0
 19 46  1  0
 21 47  1  0
 21 48  1  0
 21 49  1  0
M  END
$$$$
