
     RDKit          3D

 48 50  0  0  0  0  0  0  0  0999 V2000
   -8.6489   -0.5254   -0.1485 N   0  0  0  0  0  0  0  0  0  0  0  0
   -7.5989   -1.0226    0.6852 C   0  0  0  0  0  0  0  0  0  0  0  0
   -7.8952   -1.8528    1.6367 N   0  0  0  0  0  0  0  0  0  0  0  0
   -6.1952   -0.5987    0.4518 C   0  0  0  0  0  0  0  0  0  0  0  0
   -5.3178   -0.3874    1.5293 C   0  0  0  0  0  0  0  0  0  0  0  0
   -3.9992    0.0167    1.3025 C   0  0  0  0  0  0  0  0  0  0  0  0
   -3.5282    0.2180   -0.0065 C   0  0  0  0  0  0  0  0  0  0  0  0
   -4.4070    0.0080   -1.0833 C   0  0  0  0  0  0  0  0  0  0  0  0
   -5.7263   -0.3937   -0.8562 C   0  0  0  0  0  0  0  0  0  0  0  0
   -2.1264    0.6461   -0.2477 C   0  0  0  0  0  0  0  0  0  0  0  0
   -1.3816    0.0938   -1.3046 C   0  0  0  0  0  0  0  0  0  0  0  0
   -0.0619    0.4956   -1.5309 C   0  0  0  0  0  0  0  0  0  0  0  0
    0.5404    1.4589   -0.6998 C   0  0  0  0  0  0  0  0  0  0  0  0
    1.8616    1.9004   -0.8791 O   0  0  0  0  0  0  0  0  0  0  0  0
    2.8026    1.3534   -1.8042 C   0  0  0  0  0  0  0  0  0  0  0  0
    3.3224   -0.0101   -1.3214 C   0  0  2  0  0  0  0  0  0  0  0  0
    4.1030    0.0980    0.0143 C   0  0  0  0  0  0  0  0  0  0  0  0
    5.5910   -0.1885   -0.2993 C   0  0  1  0  0  0  0  0  0  0  0  0
    6.2066   -1.2636    0.6134 C   0  0  0  0  0  0  0  0  0  0  0  0
    6.3072   -0.7767    2.0261 C   0  0  0  0  0  0  0  0  0  0  0  0
    7.3119    0.1185    2.3796 O   0  0  0  0  0  0  0  0  0  0  0  0
    5.4681   -1.1539    2.8872 O   0  0  0  0  0  0  0  0  0  0  0  0
    5.5490   -0.6357   -1.7115 C   0  0  0  0  0  0  0  0  0  0  0  0
    6.5578   -1.0148   -2.3638 O   0  0  0  0  0  0  0  0  0  0  0  0
    4.2653   -0.5443   -2.2859 N   0  0  0  0  0  0  0  0  0  0  0  0
   -0.2027    2.0126    0.3478 C   0  0  0  0  0  0  0  0  0  0  0  0
   -1.5217    1.6115    0.5761 C   0  0  0  0  0  0  0  0  0  0  0  0
   -9.6306   -0.8549   -0.0125 H   0  0  0  0  0  0  0  0  0  0  0  0
   -8.4677    0.2102   -0.8667 H   0  0  0  0  0  0  0  0  0  0  0  0
   -7.1772   -2.2710    2.2691 H   0  0  0  0  0  0  0  0  0  0  0  0
   -5.6540   -0.5171    2.5502 H   0  0  0  0  0  0  0  0  0  0  0  0
   -3.3434    0.1586    2.1524 H   0  0  0  0  0  0  0  0  0  0  0  0
   -4.0788    0.1689   -2.1025 H   0  0  0  0  0  0  0  0  0  0  0  0
   -6.3747   -0.5595   -1.7072 H   0  0  0  0  0  0  0  0  0  0  0  0
   -1.8143   -0.6624   -1.9475 H   0  0  0  0  0  0  0  0  0  0  0  0
    0.4759    0.0486   -2.3546 H   0  0  0  0  0  0  0  0  0  0  0  0
    3.6577    2.0579   -1.8902 H   0  0  0  0  0  0  0  0  0  0  0  0
    2.3492    1.2704   -2.8148 H   0  0  0  0  0  0  0  0  0  0  0  0
    2.4783   -0.7236   -1.2099 H   0  0  0  0  0  0  0  0  0  0  0  0
    3.6912   -0.6495    0.7279 H   0  0  0  0  0  0  0  0  0  0  0  0
    3.9994    1.1000    0.4858 H   0  0  0  0  0  0  0  0  0  0  0  0
    6.1829    0.7522   -0.2431 H   0  0  0  0  0  0  0  0  0  0  0  0
    5.6028   -2.1976    0.5743 H   0  0  0  0  0  0  0  0  0  0  0  0
    7.2309   -1.5097    0.2586 H   0  0  0  0  0  0  0  0  0  0  0  0
    7.3866    0.4674    3.3277 H   0  0  0  0  0  0  0  0  0  0  0  0
    4.0381   -0.7819   -3.2773 H   0  0  0  0  0  0  0  0  0  0  0  0
    0.2459    2.7597    0.9903 H   0  0  0  0  0  0  0  0  0  0  0  0
   -2.0742    2.0699    1.3867 H   0  0  0  0  0  0  0  0  0  0  0  0
  1  2  1  0
  2  3  2  3
  2  4  1  0
  4  5  2  0
  5  6  1  0
  6  7  2  0
  7  8  1  0
  8  9  2  0
  7 10  1  0
 10 11  2  0
 11 12  1  0
 12 13  2  0
 13 14  1  0
 14 15  1  0
 15 16  1  0
 16 17  1  0
 17 18  1  0
 18 19  1  0
 19 20  1  0
 20 21  1  0
 20 22  2  0
 18 23  1  0
 23 24  2  0
 23 25  1  0
 13 26  1  0
 26 27  2  0
  9  4  1  0
 27 10  1  0
 25 16  1  0
  1 28  1  0
  1 29  1  0
  3 30  1  0
  5 31  1  0
  6 32  1  0
  8 33  1  0
  9 34  1  0
 11 35  1  0
 12 36  1  0
 15 37  1  0
 15 38  1  0
 16 39  1  1
 17 40  1  0
 17 41  1  0
 18 42  1  6
 19 43  1  0
 19 44  1  0
 21 45  1  0
 25 46  1  0
 26 47  1  0
 27 48  1  0
M  END
$$$$
