
     RDKit          3D

 55 57  0  0  0  0  0  0  0  0999 V2000
    0.9779    1.5815   -1.5400 C   0  0  1  0  0  0  0  0  0  0  0  0
    1.0283    3.1002   -1.7205 C   0  0  0  0  0  0  0  0  0  0  0  0
    2.3092    1.0632   -1.1925 C   0  0  0  0  0  0  0  0  0  0  0  0
    3.3933    0.6360   -0.8849 C   0  0  0  0  0  0  0  0  0  0  0  0
    4.6838    0.1215   -0.4901 C   0  0  0  0  0  0  0  0  0  0  0  0
    4.9302   -0.2448    0.8476 C   0  0  0  0  0  0  0  0  0  0  0  0
    3.8745   -0.1135    1.9077 C   0  0  0  0  0  0  0  0  0  0  0  0
    6.1531   -0.7259    1.1951 N   0  0  0  0  0  0  0  0  0  0  0  0
    7.1457   -0.8634    0.2794 C   0  0  0  0  0  0  0  0  0  0  0  0
    8.4170   -1.3717    0.6763 N   0  0  0  0  0  0  0  0  0  0  0  0
    6.9267   -0.5159   -1.0145 N   0  0  0  0  0  0  0  0  0  0  0  0
    5.7264   -0.0281   -1.4249 C   0  0  0  0  0  0  0  0  0  0  0  0
    5.5559    0.3218   -2.8029 N   0  0  0  0  0  0  0  0  0  0  0  0
   -0.0299    1.1956   -0.4769 C   0  0  0  0  0  0  0  0  0  0  0  0
    0.1956    1.5027    0.8771 C   0  0  0  0  0  0  0  0  0  0  0  0
   -0.7343    1.1489    1.8584 C   0  0  0  0  0  0  0  0  0  0  0  0
   -0.4475    1.4753    3.1925 O   0  0  0  0  0  0  0  0  0  0  0  0
   -1.2946    1.1719    4.2960 C   0  0  0  0  0  0  0  0  0  0  0  0
   -1.9160    0.4855    1.4812 C   0  0  0  0  0  0  0  0  0  0  0  0
   -2.1663    0.1793    0.1323 C   0  0  0  0  0  0  0  0  0  0  0  0
   -1.2178    0.5410   -0.8398 C   0  0  0  0  0  0  0  0  0  0  0  0
   -3.4174   -0.5172   -0.2618 C   0  0  0  0  0  0  0  0  0  0  0  0
   -3.9076   -1.5906    0.5029 C   0  0  0  0  0  0  0  0  0  0  0  0
   -5.0889   -2.2506    0.1340 C   0  0  0  0  0  0  0  0  0  0  0  0
   -5.6265   -3.3647    0.9831 C   0  0  0  0  0  0  0  0  0  0  0  0
   -5.8001   -1.8178   -0.9938 C   0  0  0  0  0  0  0  0  0  0  0  0
   -5.3143   -0.7617   -1.7774 C   0  0  0  0  0  0  0  0  0  0  0  0
   -6.0967   -0.2813   -2.9641 C   0  0  0  0  0  0  0  0  0  0  0  0
   -4.1321   -0.1076   -1.4014 C   0  0  0  0  0  0  0  0  0  0  0  0
    0.6961    1.1312   -2.5169 H   0  0  0  0  0  0  0  0  0  0  0  0
    1.7314    3.3640   -2.5398 H   0  0  0  0  0  0  0  0  0  0  0  0
    1.3644    3.6026   -0.7877 H   0  0  0  0  0  0  0  0  0  0  0  0
    0.0210    3.4833   -1.9908 H   0  0  0  0  0  0  0  0  0  0  0  0
    3.5737    0.9505    2.0101 H   0  0  0  0  0  0  0  0  0  0  0  0
    2.9864   -0.7218    1.6348 H   0  0  0  0  0  0  0  0  0  0  0  0
    4.2578   -0.4685    2.8878 H   0  0  0  0  0  0  0  0  0  0  0  0
    8.5920   -1.6407    1.6699 H   0  0  0  0  0  0  0  0  0  0  0  0
    9.1849   -1.4798   -0.0230 H   0  0  0  0  0  0  0  0  0  0  0  0
    4.6566    0.7016   -3.1721 H   0  0  0  0  0  0  0  0  0  0  0  0
    6.3480    0.1991   -3.4721 H   0  0  0  0  0  0  0  0  0  0  0  0
    1.1028    2.0150    1.1738 H   0  0  0  0  0  0  0  0  0  0  0  0
   -0.8192    1.5376    5.2290 H   0  0  0  0  0  0  0  0  0  0  0  0
   -1.4380    0.0737    4.3767 H   0  0  0  0  0  0  0  0  0  0  0  0
   -2.2755    1.6783    4.1749 H   0  0  0  0  0  0  0  0  0  0  0  0
   -2.6522    0.2236    2.2290 H   0  0  0  0  0  0  0  0  0  0  0  0
   -1.3956    0.2962   -1.8800 H   0  0  0  0  0  0  0  0  0  0  0  0
   -3.3645   -1.9237    1.3794 H   0  0  0  0  0  0  0  0  0  0  0  0
   -6.2841   -2.9432    1.7717 H   0  0  0  0  0  0  0  0  0  0  0  0
   -6.2119   -4.0805    0.3674 H   0  0  0  0  0  0  0  0  0  0  0  0
   -4.7973   -3.9259    1.4643 H   0  0  0  0  0  0  0  0  0  0  0  0
   -6.7308   -2.3039   -1.2627 H   0  0  0  0  0  0  0  0  0  0  0  0
   -6.6621   -1.1184   -3.4264 H   0  0  0  0  0  0  0  0  0  0  0  0
   -6.8116    0.5040   -2.6413 H   0  0  0  0  0  0  0  0  0  0  0  0
   -5.4183    0.1409   -3.7358 H   0  0  0  0  0  0  0  0  0  0  0  0
   -3.7819    0.7349   -1.9860 H   0  0  0  0  0  0  0  0  0  0  0  0
  1  2  1  0
  1  3  1  0
  3  4  3  0
  4  5  1  0
  5  6  2  0
  6  7  1  0
  6  8  1  0
  8  9  2  0
  9 10  1  0
  9 11  1  0
 11 12  2  0
 12 13  1  0
  1 14  1  0
 14 15  2  0
 15 16  1  0
 16 17  1  0
 17 18  1  0
 16 19  2  0
 19 20  1  0
 20 21  2  0
 20 22  1  0
 22 23  2  0
 23 24  1  0
 24 25  1  0
 24 26  2  0
 26 27  1  0
 27 28  1  0
 27 29  2  0
 12  5  1  0
 21 14  1  0
 29 22  1  0
  1 30  1  6
  2 31  1  0
  2 32  1  0
  2 33  1  0
  7 34  1  0
  7 35  1  0
  7 36  1  0
 10 37  1  0
 10 38  1  0
 13 39  1  0
 13 40  1  0
 15 41  1  0
 18 42  1  0
 18 43  1  0
 18 44  1  0
 19 45  1  0
 21 46  1  0
 23 47  1  0
 25 48  1  0
 25 49  1  0
 25 50  1  0
 26 51  1  0
 28 52  1  0
 28 53  1  0
 28 54  1  0
 29 55  1  0
M  END
$$$$
