
     RDKit          3D

 55 57  0  0  0  0  0  0  0  0999 V2000
    3.1781    1.4400   -0.8676 C   0  0  0  0  0  0  0  0  0  0  0  0
    1.7127    1.7099   -0.6366 C   0  0  0  0  0  0  0  0  0  0  0  0
    0.8540    0.4180   -0.7921 C   0  0  2  0  0  0  0  0  0  0  0  0
    0.9055   -0.2196   -2.1827 C   0  0  0  0  0  0  0  0  0  0  0  0
    1.2710    0.4328   -3.3035 C   0  0  0  0  0  0  0  0  0  0  0  0
    0.2926   -1.5902   -2.2914 C   0  0  0  0  0  0  0  0  0  0  0  0
   -1.1702   -1.5256   -1.8388 C   0  0  0  0  0  0  0  0  0  0  0  0
   -1.2943   -0.9137   -0.4096 C   0  0  2  0  0  0  0  0  0  0  0  0
   -2.6910   -1.1428    0.3202 C   0  0  2  0  0  0  0  0  0  0  0  0
   -2.9399   -2.6713    0.4827 C   0  0  0  0  0  0  0  0  0  0  0  0
   -3.9441   -0.5485   -0.4069 C   0  0  0  0  0  0  0  0  0  0  0  0
   -3.9794   -0.8570   -1.7736 O   0  0  0  0  0  0  0  0  0  0  0  0
   -2.5779   -0.5562    1.7686 C   0  0  2  0  0  0  0  0  0  0  0  0
   -3.7812   -0.6916    2.4902 O   0  0  0  0  0  0  0  0  0  0  0  0
   -2.0845    0.9001    1.7964 C   0  0  0  0  0  0  0  0  0  0  0  0
   -0.7059    1.0360    1.1469 C   0  0  0  0  0  0  0  0  0  0  0  0
   -0.6557    0.5411   -0.3295 C   0  0  1  0  0  0  0  0  0  0  0  0
   -1.3756    1.5760   -1.2407 C   0  0  0  0  0  0  0  0  0  0  0  0
    4.0022    0.9556    0.0747 C   0  0  0  0  0  0  0  0  0  0  0  0
    5.3971    0.6455   -0.1273 C   0  0  0  0  0  0  0  0  0  0  0  0
    6.0358    0.8079   -1.2005 O   0  0  0  0  0  0  0  0  0  0  0  0
    5.9584    0.1343    1.0206 O   0  0  0  0  0  0  0  0  0  0  0  0
    4.9958    0.0398    2.0655 C   0  0  0  0  0  0  0  0  0  0  0  0
    3.6792    0.6432    1.5068 C   0  0  1  0  0  0  0  0  0  0  0  0
    3.3544    1.8243    2.1904 O   0  0  0  0  0  0  0  0  0  0  0  0
    3.5789    1.6509   -1.8515 H   0  0  0  0  0  0  0  0  0  0  0  0
    1.5998    2.1503    0.3707 H   0  0  0  0  0  0  0  0  0  0  0  0
    1.3782    2.4942   -1.3444 H   0  0  0  0  0  0  0  0  0  0  0  0
    1.3280   -0.3253   -0.1158 H   0  0  0  0  0  0  0  0  0  0  0  0
    1.2127   -0.0533   -4.2724 H   0  0  0  0  0  0  0  0  0  0  0  0
    1.6181    1.4569   -3.2981 H   0  0  0  0  0  0  0  0  0  0  0  0
    0.8560   -2.2938   -1.6407 H   0  0  0  0  0  0  0  0  0  0  0  0
    0.3402   -1.9883   -3.3291 H   0  0  0  0  0  0  0  0  0  0  0  0
   -1.5642   -2.5596   -1.8683 H   0  0  0  0  0  0  0  0  0  0  0  0
   -1.7350   -0.9328   -2.5843 H   0  0  0  0  0  0  0  0  0  0  0  0
   -0.5996   -1.5390    0.1995 H   0  0  0  0  0  0  0  0  0  0  0  0
   -3.8184   -2.8650    1.1350 H   0  0  0  0  0  0  0  0  0  0  0  0
   -3.1556   -3.1659   -0.4847 H   0  0  0  0  0  0  0  0  0  0  0  0
   -2.0640   -3.1765    0.9436 H   0  0  0  0  0  0  0  0  0  0  0  0
   -4.0144    0.5441   -0.2942 H   0  0  0  0  0  0  0  0  0  0  0  0
   -4.8763   -0.9229    0.0784 H   0  0  0  0  0  0  0  0  0  0  0  0
   -4.4324   -1.7350   -1.8656 H   0  0  0  0  0  0  0  0  0  0  0  0
   -1.8148   -1.1510    2.3207 H   0  0  0  0  0  0  0  0  0  0  0  0
   -4.4002    0.0299    2.2054 H   0  0  0  0  0  0  0  0  0  0  0  0
   -2.0025    1.2253    2.8567 H   0  0  0  0  0  0  0  0  0  0  0  0
   -2.8100    1.5847    1.3130 H   0  0  0  0  0  0  0  0  0  0  0  0
   -0.4266    2.1089    1.2099 H   0  0  0  0  0  0  0  0  0  0  0  0
    0.0277    0.4671    1.7610 H   0  0  0  0  0  0  0  0  0  0  0  0
   -1.3594    1.2788   -2.3075 H   0  0  0  0  0  0  0  0  0  0  0  0
   -2.4208    1.7480   -0.9534 H   0  0  0  0  0  0  0  0  0  0  0  0
   -0.8872    2.5686   -1.1668 H   0  0  0  0  0  0  0  0  0  0  0  0
    5.3584    0.5929    2.9586 H   0  0  0  0  0  0  0  0  0  0  0  0
    4.8471   -1.0285    2.3321 H   0  0  0  0  0  0  0  0  0  0  0  0
    2.8519   -0.0979    1.5716 H   0  0  0  0  0  0  0  0  0  0  0  0
    2.9465    1.5465    3.0516 H   0  0  0  0  0  0  0  0  0  0  0  0
  1  2  1  0
  2  3  1  0
  3  4  1  0
  4  5  2  3
  4  6  1  0
  6  7  1  0
  7  8  1  0
  8  9  1  0
  9 10  1  1
  9 11  1  0
 11 12  1  0
  9 13  1  0
 13 14  1  0
 13 15  1  0
 15 16  1  0
 16 17  1  0
 17 18  1  6
  1 19  2  0
 19 20  1  0
 20 21  2  0
 20 22  1  0
 22 23  1  0
 23 24  1  0
 24 25  1  0
 17  3  1  0
 24 19  1  0
 17  8  1  0
  1 26  1  0
  2 27  1  0
  2 28  1  0
  3 29  1  1
  5 30  1  0
  5 31  1  0
  6 32  1  0
  6 33  1  0
  7 34  1  0
  7 35  1  0
  8 36  1  1
 10 37  1  0
 10 38  1  0
 10 39  1  0
 11 40  1  0
 11 41  1  0
 12 42  1  0
 13 43  1  1
 14 44  1  0
 15 45  1  0
 15 46  1  0
 16 47  1  0
 16 48  1  0
 18 49  1  0
 18 50  1  0
 18 51  1  0
 23 52  1  0
 23 53  1  0
 24 54  1  6
 25 55  1  0
M  END
$$$$
