
     RDKit          3D

 52 56  0  0  0  0  0  0  0  0999 V2000
   -4.2883    0.1316    2.7621 C   0  0  0  0  0  0  0  0  0  0  0  0
   -4.7928    0.7857    1.4757 C   0  0  0  0  0  0  0  0  0  0  0  0
   -6.3893    0.3079    1.1186 S   0  0  0  0  0  0  0  0  0  0  0  0
   -5.3079   -0.3050   -0.2169 C   0  0  0  0  0  0  0  0  0  0  0  0
   -5.3743   -1.0242   -1.3962 C   0  0  0  0  0  0  0  0  0  0  0  0
   -6.6533   -1.5712   -1.9022 C   0  0  0  0  0  0  0  0  0  0  0  0
   -6.6963   -2.2881   -3.0946 O   0  0  0  0  0  0  0  0  0  0  0  0
   -7.7195   -1.3912   -1.2541 O   0  0  0  0  0  0  0  0  0  0  0  0
   -4.1193   -1.1816   -2.0610 C   0  0  0  0  0  0  0  0  0  0  0  0
   -4.0680   -1.8260   -3.1444 O   0  0  0  0  0  0  0  0  0  0  0  0
   -2.9101   -0.6153   -1.5187 C   0  0  0  0  0  0  0  0  0  0  0  0
   -1.6725   -0.7621   -2.1695 C   0  0  0  0  0  0  0  0  0  0  0  0
   -0.5118   -0.1961   -1.6289 C   0  0  0  0  0  0  0  0  0  0  0  0
    0.6717   -0.3909   -2.2633 F   0  0  0  0  0  0  0  0  0  0  0  0
   -0.5635    0.5382   -0.4290 C   0  0  0  0  0  0  0  0  0  0  0  0
   -1.7885    0.6856    0.2386 C   0  0  0  0  0  0  0  0  0  0  0  0
   -2.9463    0.1141   -0.2950 C   0  0  0  0  0  0  0  0  0  0  0  0
   -4.1463    0.2283    0.3072 N   0  0  0  0  0  0  0  0  0  0  0  0
    0.6324    1.1150    0.1248 N   0  0  0  0  0  0  0  0  0  0  0  0
    1.4590    2.0331   -0.6630 C   0  0  0  0  0  0  0  0  0  0  0  0
    2.9417    1.6112   -0.6106 C   0  0  0  0  0  0  0  0  0  0  0  0
    3.3220    0.8847    0.6309 N   0  0  0  0  0  0  0  0  0  0  0  0
    3.4052   -0.5774    0.4269 C   0  0  0  0  0  0  0  0  0  0  0  0
    4.6690   -0.9273   -0.2966 C   0  0  0  0  0  0  0  0  0  0  0  0
    5.9668   -0.7684    0.1537 C   0  0  0  0  0  0  0  0  0  0  0  0
    6.4072   -0.2071    1.4650 C   0  0  0  0  0  0  0  0  0  0  0  0
    6.7748   -1.1849   -0.7928 O   0  0  0  0  0  0  0  0  0  0  0  0
    5.9996   -1.5827   -1.7761 C   0  0  0  0  0  0  0  0  0  0  0  0
    6.4334   -2.0502   -2.8611 O   0  0  0  0  0  0  0  0  0  0  0  0
    4.7225   -1.4379   -1.5045 O   0  0  0  0  0  0  0  0  0  0  0  0
    2.4612    1.2336    1.7807 C   0  0  0  0  0  0  0  0  0  0  0  0
    0.9942    0.8538    1.5217 C   0  0  0  0  0  0  0  0  0  0  0  0
   -4.8965    0.4773    3.6246 H   0  0  0  0  0  0  0  0  0  0  0  0
   -4.3514   -0.9761    2.6939 H   0  0  0  0  0  0  0  0  0  0  0  0
   -3.2319    0.4173    2.9439 H   0  0  0  0  0  0  0  0  0  0  0  0
   -4.6909    1.8924    1.4997 H   0  0  0  0  0  0  0  0  0  0  0  0
   -7.5693   -2.6643   -3.4447 H   0  0  0  0  0  0  0  0  0  0  0  0
   -1.5968   -1.3194   -3.0951 H   0  0  0  0  0  0  0  0  0  0  0  0
   -1.8418    1.2580    1.1550 H   0  0  0  0  0  0  0  0  0  0  0  0
    1.1167    2.0857   -1.7193 H   0  0  0  0  0  0  0  0  0  0  0  0
    1.3534    3.0548   -0.2376 H   0  0  0  0  0  0  0  0  0  0  0  0
    3.1729    1.0090   -1.5176 H   0  0  0  0  0  0  0  0  0  0  0  0
    3.5700    2.5242   -0.6870 H   0  0  0  0  0  0  0  0  0  0  0  0
    3.4209   -1.1143    1.4009 H   0  0  0  0  0  0  0  0  0  0  0  0
    2.5286   -0.9516   -0.1473 H   0  0  0  0  0  0  0  0  0  0  0  0
    5.8934   -0.7378    2.2934 H   0  0  0  0  0  0  0  0  0  0  0  0
    7.5040   -0.3321    1.5811 H   0  0  0  0  0  0  0  0  0  0  0  0
    6.1580    0.8735    1.5096 H   0  0  0  0  0  0  0  0  0  0  0  0
    2.5302    2.3282    1.9668 H   0  0  0  0  0  0  0  0  0  0  0  0
    2.8258    0.7345    2.7051 H   0  0  0  0  0  0  0  0  0  0  0  0
    0.3335    1.4334    2.2008 H   0  0  0  0  0  0  0  0  0  0  0  0
    0.8587   -0.2280    1.7402 H   0  0  0  0  0  0  0  0  0  0  0  0
  1  2  1  0
  2  3  1  0
  3  4  1  0
  4  5  2  0
  5  6  1  0
  6  7  1  0
  6  8  2  0
  5  9  1  0
  9 10  2  0
  9 11  1  0
 11 12  2  0
 12 13  1  0
 13 14  1  0
 13 15  2  0
 15 16  1  0
 16 17  2  0
 17 18  1  0
 15 19  1  0
 19 20  1  0
 20 21  1  0
 21 22  1  0
 22 23  1  0
 23 24  1  0
 24 25  2  0
 25 26  1  0
 25 27  1  0
 27 28  1  0
 28 29  2  0
 28 30  1  0
 22 31  1  0
 31 32  1  0
 18  2  1  0
 32 19  1  0
 18  4  1  0
 30 24  1  0
 17 11  1  0
  1 33  1  0
  1 34  1  0
  1 35  1  0
  2 36  1  0
  7 37  1  0
 12 38  1  0
 16 39  1  0
 20 40  1  0
 20 41  1  0
 21 42  1  0
 21 43  1  0
 23 44  1  0
 23 45  1  0
 26 46  1  0
 26 47  1  0
 26 48  1  0
 31 49  1  0
 31 50  1  0
 32 51  1  0
 32 52  1  0
M  END
$$$$
