
     RDKit          3D

 41 42  0  0  0  0  0  0  0  0999 V2000
   -1.0147   -1.3765   -0.9486 O   0  0  0  0  0  0  0  0  0  0  0  0
   -0.9777   -0.1640   -0.2393 C   0  0  1  0  0  0  0  0  0  0  0  0
    0.3929    0.4932   -0.4458 C   0  0  0  0  0  0  0  0  0  0  0  0
    1.4163   -0.3582    0.0470 O   0  0  0  0  0  0  0  0  0  0  0  0
    2.7372    0.0218   -0.0323 N   0  0  0  0  0  0  0  0  0  0  0  0
    3.6914   -0.7388    0.4079 C   0  0  0  0  0  0  0  0  0  0  0  0
    3.2862   -2.3009    1.1259 Cl  0  0  0  0  0  0  0  0  0  0  0  0
    5.1052   -0.2893    0.3026 C   0  0  0  0  0  0  0  0  0  0  0  0
    6.1637   -1.0913    0.7707 C   0  0  0  0  0  0  0  0  0  0  0  0
    7.4544   -0.6670    0.6680 N   0  0  0  0  0  4  0  0  0  0  0  0
    8.4677   -1.4724    1.1341 O   0  0  0  0  0  1  0  0  0  0  0  0
    7.7628    0.5366    0.1139 C   0  0  0  0  0  0  0  0  0  0  0  0
    6.7518    1.3681   -0.3646 C   0  0  0  0  0  0  0  0  0  0  0  0
    5.4233    0.9555   -0.2704 C   0  0  0  0  0  0  0  0  0  0  0  0
   -2.1018    0.7705   -0.7525 C   0  0  0  0  0  0  0  0  0  0  0  0
   -3.4503    0.4801   -0.2146 N   0  0  0  0  0  0  0  0  0  0  0  0
   -3.9832   -0.8464   -0.5871 C   0  0  0  0  0  0  0  0  0  0  0  0
   -5.4069   -1.0664   -0.0248 C   0  0  0  0  0  0  0  0  0  0  0  0
   -6.0074    0.2218    0.5519 C   0  0  0  0  0  0  0  0  0  0  0  0
   -5.0795    0.8497    1.6076 C   0  0  0  0  0  0  0  0  0  0  0  0
   -3.5891    0.7311    1.2315 C   0  0  0  0  0  0  0  0  0  0  0  0
   -0.5940   -2.0653   -0.3703 H   0  0  0  0  0  0  0  0  0  0  0  0
   -1.1049   -0.3458    0.8510 H   0  0  0  0  0  0  0  0  0  0  0  0
    0.4360    1.4600    0.1017 H   0  0  0  0  0  0  0  0  0  0  0  0
    0.5631    0.6849   -1.5279 H   0  0  0  0  0  0  0  0  0  0  0  0
    5.9680   -2.0564    1.2190 H   0  0  0  0  0  0  0  0  0  0  0  0
    8.7957    0.8539    0.0424 H   0  0  0  0  0  0  0  0  0  0  0  0
    6.9962    2.3260   -0.8055 H   0  0  0  0  0  0  0  0  0  0  0  0
    4.6482    1.6115   -0.6461 H   0  0  0  0  0  0  0  0  0  0  0  0
   -2.1357    0.7243   -1.8634 H   0  0  0  0  0  0  0  0  0  0  0  0
   -1.8525    1.8269   -0.5082 H   0  0  0  0  0  0  0  0  0  0  0  0
   -3.3320   -1.6570   -0.1974 H   0  0  0  0  0  0  0  0  0  0  0  0
   -4.0149   -0.9288   -1.6956 H   0  0  0  0  0  0  0  0  0  0  0  0
   -6.0727   -1.4560   -0.8252 H   0  0  0  0  0  0  0  0  0  0  0  0
   -5.3719   -1.8324    0.7813 H   0  0  0  0  0  0  0  0  0  0  0  0
   -6.1670    0.9473   -0.2762 H   0  0  0  0  0  0  0  0  0  0  0  0
   -6.9978    0.0039    1.0068 H   0  0  0  0  0  0  0  0  0  0  0  0
   -5.3513    1.9214    1.7253 H   0  0  0  0  0  0  0  0  0  0  0  0
   -5.2482    0.3538    2.5885 H   0  0  0  0  0  0  0  0  0  0  0  0
   -3.1368   -0.1014    1.8150 H   0  0  0  0  0  0  0  0  0  0  0  0
   -3.0697    1.6718    1.5196 H   0  0  0  0  0  0  0  0  0  0  0  0
  1  2  1  0
  2  3  1  0
  3  4  1  0
  4  5  1  0
  5  6  2  3
  6  7  1  0
  6  8  1  0
  8  9  2  0
  9 10  1  0
 10 11  1  0
 10 12  2  0
 12 13  1  0
 13 14  2  0
  2 15  1  0
 15 16  1  0
 16 17  1  0
 17 18  1  0
 18 19  1  0
 19 20  1  0
 20 21  1  0
 14  8  1  0
 21 16  1  0
  1 22  1  0
  2 23  1  1
  3 24  1  0
  3 25  1  0
  9 26  1  0
 12 27  1  0
 13 28  1  0
 14 29  1  0
 15 30  1  0
 15 31  1  0
 17 32  1  0
 17 33  1  0
 18 34  1  0
 18 35  1  0
 19 36  1  0
 19 37  1  0
 20 38  1  0
 20 39  1  0
 21 40  1  0
 21 41  1  0
M  CHG  2  10   1  11  -1
M  END
$$$$
