
     RDKit          3D

 27 28  0  0  0  0  0  0  0  0999 V2000
    4.1836   -0.6092   -0.9567 O   0  0  0  0  0  0  0  0  0  0  0  0
    3.4349    0.9084   -0.9567 P   0  0  0  0  0  5  0  0  0  0  0  0
    3.8784    1.7633    0.4351 O   0  0  0  0  0  0  0  0  0  0  0  0
    3.8729    1.6815   -2.1796 O   0  0  0  0  0  0  0  0  0  0  0  0
    1.7247    0.7085   -0.9970 O   0  0  0  0  0  0  0  0  0  0  0  0
    0.9687    0.0462   -0.0160 C   0  0  0  0  0  0  0  0  0  0  0  0
   -0.4292   -0.0342   -0.1817 C   0  0  0  0  0  0  0  0  0  0  0  0
   -1.0632    0.5672   -1.3250 N   0  0  0  0  0  0  0  0  0  0  0  0
   -2.4826    0.3611   -1.6034 C   0  0  0  0  0  0  0  0  0  0  0  0
   -3.2723    0.3007   -0.2957 C   0  0  0  0  0  0  0  0  0  0  0  0
   -2.7152   -0.8019    0.6122 C   0  0  0  0  0  0  0  0  0  0  0  0
   -1.2214   -0.6781    0.7944 C   0  0  0  0  0  0  0  0  0  0  0  0
   -0.6088   -1.2689    1.9071 C   0  0  0  0  0  0  0  0  0  0  0  0
    0.7736   -1.1945    2.0702 C   0  0  0  0  0  0  0  0  0  0  0  0
    1.5600   -0.5407    1.1207 C   0  0  0  0  0  0  0  0  0  0  0  0
    5.1457   -0.4160   -0.8231 H   0  0  0  0  0  0  0  0  0  0  0  0
    3.2850    2.5562    0.4435 H   0  0  0  0  0  0  0  0  0  0  0  0
   -0.5093    1.1466   -1.9950 H   0  0  0  0  0  0  0  0  0  0  0  0
   -2.6107   -0.5907   -2.1628 H   0  0  0  0  0  0  0  0  0  0  0  0
   -2.8653    1.1926   -2.2333 H   0  0  0  0  0  0  0  0  0  0  0  0
   -4.3423    0.0965   -0.5154 H   0  0  0  0  0  0  0  0  0  0  0  0
   -3.2039    1.2818    0.2239 H   0  0  0  0  0  0  0  0  0  0  0  0
   -2.9395   -1.7956    0.1675 H   0  0  0  0  0  0  0  0  0  0  0  0
   -3.2262   -0.7419    1.5979 H   0  0  0  0  0  0  0  0  0  0  0  0
   -1.2034   -1.7868    2.6496 H   0  0  0  0  0  0  0  0  0  0  0  0
    1.2389   -1.6480    2.9359 H   0  0  0  0  0  0  0  0  0  0  0  0
    2.6271   -0.5039    1.2833 H   0  0  0  0  0  0  0  0  0  0  0  0
  1  2  1  0
  2  3  1  0
  2  4  2  0
  2  5  1  0
  5  6  1  0
  6  7  2  0
  7  8  1  0
  8  9  1  0
  9 10  1  0
 10 11  1  0
 11 12  1  0
 12 13  2  0
 13 14  1  0
 14 15  2  0
 15  6  1  0
 12  7  1  0
  1 16  1  0
  3 17  1  0
  8 18  1  0
  9 19  1  0
  9 20  1  0
 10 21  1  0
 10 22  1  0
 11 23  1  0
 11 24  1  0
 13 25  1  0
 14 26  1  0
 15 27  1  0
M  END
$$$$
