
     RDKit          3D

 42 43  0  0  0  0  0  0  0  0999 V2000
   -4.5844   -1.4827   -0.3336 C   0  0  0  0  0  0  0  0  0  0  0  0
   -4.4578   -0.1147    0.3726 C   0  0  0  0  0  0  0  0  0  0  0  0
   -4.8612    1.0203   -0.5962 C   0  0  0  0  0  0  0  0  0  0  0  0
   -5.4364   -0.1082    1.5662 C   0  0  0  0  0  0  0  0  0  0  0  0
   -3.0844    0.0741    0.9058 N   0  0  0  0  0  0  0  0  0  0  0  0
   -2.0329    0.2509   -0.1113 C   0  0  0  0  0  0  0  0  0  0  0  0
   -0.6451    0.0932    0.5353 C   0  0  2  0  0  0  0  0  0  0  0  0
   -0.4476    1.0527    1.5447 O   0  0  0  0  0  0  0  0  0  0  0  0
    0.4702    0.1808   -0.5151 C   0  0  0  0  0  0  0  0  0  0  0  0
    1.7356    0.0082    0.1174 O   0  0  0  0  0  0  0  0  0  0  0  0
    2.9640    0.0336   -0.5573 C   0  0  0  0  0  0  0  0  0  0  0  0
    3.0742    0.2309   -1.9545 C   0  0  0  0  0  0  0  0  0  0  0  0
    4.3409    0.2464   -2.5747 C   0  0  0  0  0  0  0  0  0  0  0  0
    5.5076    0.0663   -1.8138 C   0  0  0  0  0  0  0  0  0  0  0  0
    5.3729   -0.1260   -0.4410 C   0  0  0  0  0  0  0  0  0  0  0  0
    4.1453   -0.1420    0.1661 C   0  0  0  0  0  0  0  0  0  0  0  0
    4.3457   -0.3655    1.6210 C   0  0  0  0  0  0  0  0  0  0  0  0
    5.8499   -0.4585    1.6500 C   0  0  0  0  0  0  0  0  0  0  0  0
    6.4200   -0.3236    0.4918 N   0  0  0  0  0  0  0  0  0  0  0  0
    6.6082   -0.6780    2.8501 C   0  0  0  0  0  0  0  0  0  0  0  0
    7.2187   -0.8548    3.8171 N   0  0  0  0  0  0  0  0  0  0  0  0
   -4.1662   -2.2878    0.3081 H   0  0  0  0  0  0  0  0  0  0  0  0
   -4.0564   -1.4952   -1.3088 H   0  0  0  0  0  0  0  0  0  0  0  0
   -5.6500   -1.7192   -0.5440 H   0  0  0  0  0  0  0  0  0  0  0  0
   -4.7033    2.0115   -0.1196 H   0  0  0  0  0  0  0  0  0  0  0  0
   -4.2682    0.9786   -1.5340 H   0  0  0  0  0  0  0  0  0  0  0  0
   -5.9331    0.9317   -0.8768 H   0  0  0  0  0  0  0  0  0  0  0  0
   -6.4816   -0.2811    1.2290 H   0  0  0  0  0  0  0  0  0  0  0  0
   -5.4033    0.8687    2.0954 H   0  0  0  0  0  0  0  0  0  0  0  0
   -5.1650   -0.9050    2.2922 H   0  0  0  0  0  0  0  0  0  0  0  0
   -3.0740    0.9269    1.5149 H   0  0  0  0  0  0  0  0  0  0  0  0
   -2.1097    1.2595   -0.5757 H   0  0  0  0  0  0  0  0  0  0  0  0
   -2.1236   -0.5112   -0.9110 H   0  0  0  0  0  0  0  0  0  0  0  0
   -0.5949   -0.9143    1.0037 H   0  0  0  0  0  0  0  0  0  0  0  0
   -0.4947    1.9494    1.1202 H   0  0  0  0  0  0  0  0  0  0  0  0
    0.3268   -0.6191   -1.2744 H   0  0  0  0  0  0  0  0  0  0  0  0
    0.4368    1.1719   -1.0188 H   0  0  0  0  0  0  0  0  0  0  0  0
    2.1945    0.3723   -2.5673 H   0  0  0  0  0  0  0  0  0  0  0  0
    4.4149    0.3979   -3.6437 H   0  0  0  0  0  0  0  0  0  0  0  0
    6.4836    0.0768   -2.2813 H   0  0  0  0  0  0  0  0  0  0  0  0
    3.8781   -1.3186    1.9474 H   0  0  0  0  0  0  0  0  0  0  0  0
    3.9857    0.5029    2.2124 H   0  0  0  0  0  0  0  0  0  0  0  0
  1  2  1  0
  2  3  1  0
  2  4  1  0
  2  5  1  0
  5  6  1  0
  6  7  1  0
  7  8  1  0
  7  9  1  0
  9 10  1  0
 10 11  1  0
 11 12  2  0
 12 13  1  0
 13 14  2  0
 14 15  1  0
 15 16  2  0
 16 17  1  0
 17 18  1  0
 18 19  2  0
 18 20  1  0
 20 21  3  0
 16 11  1  0
 19 15  1  0
  1 22  1  0
  1 23  1  0
  1 24  1  0
  3 25  1  0
  3 26  1  0
  3 27  1  0
  4 28  1  0
  4 29  1  0
  4 30  1  0
  5 31  1  0
  6 32  1  0
  6 33  1  0
  7 34  1  1
  8 35  1  0
  9 36  1  0
  9 37  1  0
 12 38  1  0
 13 39  1  0
 14 40  1  0
 17 41  1  0
 17 42  1  0
M  END
$$$$
