
     RDKit          3D

 21 22  0  0  0  0  0  0  0  0999 V2000
    2.6067    1.6239   -0.0959 N   0  0  0  0  0  0  0  0  0  0  0  0
    2.2029    0.2677   -0.3199 C   0  0  0  0  0  0  0  0  0  0  0  0
    3.0802   -0.6021   -0.7255 N   0  0  0  0  0  4  0  0  0  0  0  0
    0.7899   -0.1287   -0.0972 C   0  0  0  0  0  0  0  0  0  0  0  0
   -0.2558    0.7663   -0.4266 C   0  0  0  0  0  0  0  0  0  0  0  0
   -1.5649    0.3518   -0.1967 C   0  0  0  0  0  0  0  0  0  0  0  0
   -1.8607   -0.8675    0.3290 C   0  0  0  0  0  0  0  0  0  0  0  0
   -0.8673   -1.7785    0.6715 C   0  0  0  0  0  0  0  0  0  0  0  0
    0.4715   -1.4010    0.4554 C   0  0  0  0  0  0  0  0  0  0  0  0
   -3.1922   -1.0173    0.4470 N   0  0  0  0  0  0  0  0  0  0  0  0
   -3.6721    0.1613   -0.0308 C   0  0  0  0  0  0  0  0  0  0  0  0
   -2.7016    1.0174   -0.4319 N   0  0  0  0  0  0  0  0  0  0  0  0
    1.9470    2.3222    0.3128 H   0  0  0  0  0  0  0  0  0  0  0  0
    3.5863    1.9288   -0.2911 H   0  0  0  0  0  0  0  0  0  0  0  0
    2.8181   -1.5908   -0.9360 H   0  0  0  0  0  0  0  0  0  0  0  0
    4.0752   -0.3243   -0.8796 H   0  0  0  0  0  0  0  0  0  0  0  0
   -0.0597    1.7381   -0.8615 H   0  0  0  0  0  0  0  0  0  0  0  0
   -1.1142   -2.7437    1.0944 H   0  0  0  0  0  0  0  0  0  0  0  0
    1.2563   -2.0912    0.7369 H   0  0  0  0  0  0  0  0  0  0  0  0
   -4.7277    0.3925   -0.0852 H   0  0  0  0  0  0  0  0  0  0  0  0
   -2.8176    1.9750   -0.8316 H   0  0  0  0  0  0  0  0  0  0  0  0
  1  2  1  0
  2  3  2  3
  2  4  1  0
  4  5  2  0
  5  6  1  0
  6  7  2  0
  7  8  1  0
  8  9  2  0
  7 10  1  0
 10 11  2  0
 11 12  1  0
  9  4  1  0
 12  6  1  0
  1 13  1  0
  1 14  1  0
  3 15  1  0
  3 16  1  0
  5 17  1  0
  8 18  1  0
  9 19  1  0
 11 20  1  0
 12 21  1  0
M  CHG  1   3   1
M  END
$$$$
