
     RDKit          3D

 33 33  0  0  0  0  0  0  0  0999 V2000
   -0.8822   -0.9004    1.4918 C   0  0  1  0  0  0  0  0  0  0  0  0
   -1.2356   -1.9558    2.3488 O   0  0  0  0  0  0  0  0  0  0  0  0
    0.6181   -0.7569    1.4635 C   0  0  2  0  0  0  0  0  0  0  0  0
    0.9694    0.5791    1.2020 O   0  0  0  0  0  0  0  0  0  0  0  0
    1.0010   -1.6710    0.3009 C   0  0  2  0  0  0  0  0  0  0  0  0
    2.3148   -1.2858   -0.3936 C   0  0  0  0  0  0  0  0  0  0  0  0
    2.1292   -0.1177   -1.1604 O   0  0  0  0  0  0  0  0  0  0  0  0
    3.6222    0.3095   -1.8652 P   0  0  0  0  0  5  0  0  0  0  0  0
    4.7864    0.5686   -0.6636 O   0  0  0  0  0  0  0  0  0  0  0  0
    3.4211    1.7329   -2.7568 O   0  0  0  0  0  0  0  0  0  0  0  0
    4.0918   -0.7883   -2.7933 O   0  0  0  0  0  0  0  0  0  0  0  0
   -0.0577   -1.6917   -0.6290 O   0  0  0  0  0  0  0  0  0  0  0  0
   -1.2263   -1.2578    0.0365 C   0  0  2  0  0  0  0  0  0  0  0  0
   -1.8145   -0.0630   -0.7240 C   0  0  0  0  0  0  0  0  0  0  0  0
   -3.0518    0.2945   -0.1533 O   0  0  0  0  0  0  0  0  0  0  0  0
   -3.6968    1.6060   -1.0332 P   0  0  0  0  0  5  0  0  0  0  0  0
   -5.1360    2.0998   -0.2950 O   0  0  0  0  0  0  0  0  0  0  0  0
   -2.6122    2.9084   -1.0397 O   0  0  0  0  0  0  0  0  0  0  0  0
   -3.9984    1.1796   -2.4533 O   0  0  0  0  0  0  0  0  0  0  0  0
   -1.3658    0.0437    1.8393 H   0  0  0  0  0  0  0  0  0  0  0  0
   -2.2174   -1.8935    2.4829 H   0  0  0  0  0  0  0  0  0  0  0  0
    1.0948   -1.1049    2.4106 H   0  0  0  0  0  0  0  0  0  0  0  0
    0.8983    1.0653    2.0645 H   0  0  0  0  0  0  0  0  0  0  0  0
    1.1236   -2.7033    0.7017 H   0  0  0  0  0  0  0  0  0  0  0  0
    3.0962   -1.1414    0.3872 H   0  0  0  0  0  0  0  0  0  0  0  0
    2.6119   -2.1332   -1.0524 H   0  0  0  0  0  0  0  0  0  0  0  0
    4.3858    1.2512   -0.0681 H   0  0  0  0  0  0  0  0  0  0  0  0
    3.0491    2.3844   -2.1102 H   0  0  0  0  0  0  0  0  0  0  0  0
   -1.9723   -2.0833    0.0090 H   0  0  0  0  0  0  0  0  0  0  0  0
   -1.0909    0.7818   -0.6726 H   0  0  0  0  0  0  0  0  0  0  0  0
   -1.9489   -0.3666   -1.7874 H   0  0  0  0  0  0  0  0  0  0  0  0
   -4.8727    2.3477    0.6270 H   0  0  0  0  0  0  0  0  0  0  0  0
   -2.0342    2.7623   -1.8306 H   0  0  0  0  0  0  0  0  0  0  0  0
  1  2  1  0
  1  3  1  0
  3  4  1  0
  3  5  1  0
  5  6  1  0
  6  7  1  0
  7  8  1  0
  8  9  1  0
  8 10  1  0
  8 11  2  0
  5 12  1  0
 12 13  1  0
 13 14  1  0
 14 15  1  0
 15 16  1  0
 16 17  1  0
 16 18  1  0
 16 19  2  0
 13  1  1  0
  1 20  1  1
  2 21  1  0
  3 22  1  1
  4 23  1  0
  5 24  1  1
  6 25  1  0
  6 26  1  0
  9 27  1  0
 10 28  1  0
 13 29  1  1
 14 30  1  0
 14 31  1  0
 17 32  1  0
 18 33  1  0
M  END
$$$$
