
     RDKit          3D

 37 38  0  0  0  0  0  0  0  0999 V2000
    2.8530    1.8726    1.3660 C   0  0  0  0  0  0  0  0  0  0  0  0
    1.7740    1.1522    0.6931 N   0  0  0  0  0  0  0  0  0  0  0  0
    0.4750    1.5100    0.7307 C   0  0  0  0  0  0  0  0  0  0  0  0
   -0.2869    0.5814    0.0467 C   0  0  0  0  0  0  0  0  0  0  0  0
    0.5860   -0.3783   -0.4359 C   0  0  0  0  0  0  0  0  0  0  0  0
    1.8508    0.0135   -0.0392 C   0  0  0  0  0  0  0  0  0  0  0  0
    3.0717   -0.7609   -0.3408 C   0  0  0  0  0  0  0  0  0  0  0  0
    4.2410   -0.1842   -0.6405 C   0  0  0  0  0  0  0  0  0  0  0  0
    5.4450   -0.9695   -0.9714 C   0  0  0  0  0  0  0  0  0  0  0  0
    5.4148   -2.2303   -0.9525 O   0  0  0  0  0  0  0  0  0  0  0  0
    6.6595   -0.2967   -1.3135 N   0  0  0  0  0  0  0  0  0  0  0  0
    7.7719   -1.0018   -1.6301 O   0  0  0  0  0  0  0  0  0  0  0  0
   -1.7512    0.6204   -0.1276 C   0  0  0  0  0  0  0  0  0  0  0  0
   -2.3914    1.6254    0.2878 O   0  0  0  0  0  0  0  0  0  0  0  0
   -2.4722   -0.4901   -0.8485 C   0  0  0  0  0  0  0  0  0  0  0  0
   -3.9474   -0.5024   -0.5395 C   0  0  0  0  0  0  0  0  0  0  0  0
   -4.8549    0.1685   -1.3767 C   0  0  0  0  0  0  0  0  0  0  0  0
   -6.2192    0.1807   -1.0696 C   0  0  0  0  0  0  0  0  0  0  0  0
   -6.6850   -0.4676    0.0776 C   0  0  0  0  0  0  0  0  0  0  0  0
   -5.7869   -1.1262    0.9220 C   0  0  0  0  0  0  0  0  0  0  0  0
   -4.4218   -1.1409    0.6188 C   0  0  0  0  0  0  0  0  0  0  0  0
    3.3292    2.5818    0.6576 H   0  0  0  0  0  0  0  0  0  0  0  0
    2.4519    2.4491    2.2269 H   0  0  0  0  0  0  0  0  0  0  0  0
    3.6091    1.1603    1.7577 H   0  0  0  0  0  0  0  0  0  0  0  0
    0.0973    2.3857    1.2442 H   0  0  0  0  0  0  0  0  0  0  0  0
    0.3380   -1.2532   -1.0226 H   0  0  0  0  0  0  0  0  0  0  0  0
    2.9741   -1.8382   -0.4015 H   0  0  0  0  0  0  0  0  0  0  0  0
    4.3179    0.8933   -0.6795 H   0  0  0  0  0  0  0  0  0  0  0  0
    6.6928    0.7470   -1.3435 H   0  0  0  0  0  0  0  0  0  0  0  0
    8.2555   -1.1120   -0.7718 H   0  0  0  0  0  0  0  0  0  0  0  0
   -2.3094   -0.3722   -1.9416 H   0  0  0  0  0  0  0  0  0  0  0  0
   -2.0375   -1.4700   -0.5554 H   0  0  0  0  0  0  0  0  0  0  0  0
   -4.5060    0.6825   -2.2638 H   0  0  0  0  0  0  0  0  0  0  0  0
   -6.9149    0.6957   -1.7194 H   0  0  0  0  0  0  0  0  0  0  0  0
   -7.7411   -0.4561    0.3144 H   0  0  0  0  0  0  0  0  0  0  0  0
   -6.1480   -1.6226    1.8135 H   0  0  0  0  0  0  0  0  0  0  0  0
   -3.7347   -1.6471    1.2856 H   0  0  0  0  0  0  0  0  0  0  0  0
  1  2  1  0
  2  3  1  0
  3  4  2  0
  4  5  1  0
  5  6  2  0
  6  7  1  0
  7  8  2  0
  8  9  1  0
  9 10  2  0
  9 11  1  0
 11 12  1  0
  4 13  1  0
 13 14  2  0
 13 15  1  0
 15 16  1  0
 16 17  2  0
 17 18  1  0
 18 19  2  0
 19 20  1  0
 20 21  2  0
  6  2  1  0
 21 16  1  0
  1 22  1  0
  1 23  1  0
  1 24  1  0
  3 25  1  0
  5 26  1  0
  7 27  1  0
  8 28  1  0
 11 29  1  0
 12 30  1  0
 15 31  1  0
 15 32  1  0
 17 33  1  0
 18 34  1  0
 19 35  1  0
 20 36  1  0
 21 37  1  0
M  END
$$$$
