
     RDKit          3D

 46 48  0  0  0  0  0  0  0  0999 V2000
   -2.5073   -1.2393   -1.7171 C   0  0  2  0  0  0  0  0  0  0  0  0
   -2.0474   -2.6946   -1.5482 C   0  0  0  0  0  0  0  0  0  0  0  0
   -1.7516   -0.6043   -2.7174 O   0  0  0  0  0  0  0  0  0  0  0  0
   -2.4506   -0.4354   -0.3824 C   0  0  1  0  0  0  0  0  0  0  0  0
   -1.1372    0.3516   -0.1446 C   0  0  0  0  0  0  0  0  0  0  0  0
    0.0987   -0.5364   -0.0032 C   0  0  0  0  0  0  0  0  0  0  0  0
    1.1862    0.2436    0.4872 O   0  0  0  0  0  0  0  0  0  0  0  0
    2.4746   -0.2561    0.7281 C   0  0  0  0  0  0  0  0  0  0  0  0
    3.4479    0.6263    1.2120 C   0  0  0  0  0  0  0  0  0  0  0  0
    4.7525    0.1794    1.4699 C   0  0  0  0  0  0  0  0  0  0  0  0
    5.0879   -1.1763    1.2386 C   0  0  0  0  0  0  0  0  0  0  0  0
    6.3933   -1.6231    1.4966 C   0  0  0  0  0  0  0  0  0  0  0  0
    7.3566   -0.7328    1.9797 C   0  0  0  0  0  0  0  0  0  0  0  0
    7.0258    0.6056    2.2082 C   0  0  0  0  0  0  0  0  0  0  0  0
    5.7294    1.0631    1.9552 C   0  0  0  0  0  0  0  0  0  0  0  0
    4.1122   -2.0583    0.7540 C   0  0  0  0  0  0  0  0  0  0  0  0
    2.8154   -1.6034    0.5002 C   0  0  0  0  0  0  0  0  0  0  0  0
   -3.5790    0.5027   -0.3266 N   0  0  0  0  0  0  0  0  0  0  0  0
   -4.5620    0.5296    0.5963 C   0  0  0  0  0  0  0  0  0  0  0  0
   -5.4519    1.5207    0.3774 N   0  0  0  0  0  0  0  0  0  0  0  0
   -4.9944    2.1349   -0.7337 C   0  0  0  0  0  0  0  0  0  0  0  0
   -3.8433    1.5156   -1.1715 C   0  0  0  0  0  0  0  0  0  0  0  0
   -5.6460    3.2935   -1.3645 C   0  0  0  0  0  0  0  0  0  0  0  0
   -6.8409    3.8470   -0.8119 N   0  0  0  0  0  0  0  0  0  0  0  0
   -5.1478    3.8051   -2.4027 O   0  0  0  0  0  0  0  0  0  0  0  0
   -3.5740   -1.2884   -2.0425 H   0  0  0  0  0  0  0  0  0  0  0  0
   -2.1725   -3.2400   -2.5076 H   0  0  0  0  0  0  0  0  0  0  0  0
   -2.6663   -3.2061   -0.7806 H   0  0  0  0  0  0  0  0  0  0  0  0
   -0.9833   -2.7591   -1.2517 H   0  0  0  0  0  0  0  0  0  0  0  0
   -2.0641   -0.9629   -3.5890 H   0  0  0  0  0  0  0  0  0  0  0  0
   -2.5633   -1.1499    0.4649 H   0  0  0  0  0  0  0  0  0  0  0  0
   -0.9689    1.0864   -0.9615 H   0  0  0  0  0  0  0  0  0  0  0  0
   -1.2520    0.9325    0.7974 H   0  0  0  0  0  0  0  0  0  0  0  0
    0.3730   -0.9480   -0.9971 H   0  0  0  0  0  0  0  0  0  0  0  0
   -0.1115   -1.3633    0.7098 H   0  0  0  0  0  0  0  0  0  0  0  0
    3.1812    1.6623    1.3859 H   0  0  0  0  0  0  0  0  0  0  0  0
    6.6674   -2.6573    1.3253 H   0  0  0  0  0  0  0  0  0  0  0  0
    8.3622   -1.0811    2.1775 H   0  0  0  0  0  0  0  0  0  0  0  0
    7.7761    1.2902    2.5824 H   0  0  0  0  0  0  0  0  0  0  0  0
    5.4909    2.1041    2.1382 H   0  0  0  0  0  0  0  0  0  0  0  0
    4.3519   -3.0992    0.5714 H   0  0  0  0  0  0  0  0  0  0  0  0
    2.0849   -2.3080    0.1267 H   0  0  0  0  0  0  0  0  0  0  0  0
   -4.6344   -0.1637    1.4243 H   0  0  0  0  0  0  0  0  0  0  0  0
   -3.2463    1.7801   -2.0351 H   0  0  0  0  0  0  0  0  0  0  0  0
   -7.2755    3.4434    0.0473 H   0  0  0  0  0  0  0  0  0  0  0  0
   -7.2970    4.6694   -1.2658 H   0  0  0  0  0  0  0  0  0  0  0  0
  1  2  1  0
  1  3  1  0
  1  4  1  0
  4  5  1  0
  5  6  1  0
  6  7  1  0
  7  8  1  0
  8  9  2  0
  9 10  1  0
 10 11  2  0
 11 12  1  0
 12 13  2  0
 13 14  1  0
 14 15  2  0
 11 16  1  0
 16 17  2  0
  4 18  1  0
 18 19  1  0
 19 20  2  0
 20 21  1  0
 21 22  2  0
 21 23  1  0
 23 24  1  0
 23 25  2  0
 17  8  1  0
 22 18  1  0
 15 10  1  0
  1 26  1  6
  2 27  1  0
  2 28  1  0
  2 29  1  0
  3 30  1  0
  4 31  1  1
  5 32  1  0
  5 33  1  0
  6 34  1  0
  6 35  1  0
  9 36  1  0
 12 37  1  0
 13 38  1  0
 14 39  1  0
 15 40  1  0
 16 41  1  0
 17 42  1  0
 19 43  1  0
 22 44  1  0
 24 45  1  0
 24 46  1  0
M  END
$$$$
