
     RDKit          3D

 66 67  0  0  0  0  0  0  0  0999 V2000
   -3.5924   -1.8464   -0.2651 C   0  0  2  0  0  0  0  0  0  0  0  0
   -4.5796   -0.7388   -0.6680 C   0  0  0  0  0  0  0  0  0  0  0  0
   -2.2451   -1.6308   -0.8212 N   0  0  0  0  0  0  0  0  0  0  0  0
   -1.3617   -0.3671    0.0356 P   0  0  0  0  0  5  0  0  0  0  0  0
   -1.5308   -0.5369    1.5299 O   0  0  0  0  0  0  0  0  0  0  0  0
   -1.9455    1.2150   -0.4884 N   0  0  0  0  0  0  0  0  0  0  0  0
   -1.6152    2.2857    0.4673 C   0  0  1  0  0  0  0  0  0  0  0  0
   -0.1403    2.7115    0.3857 C   0  0  0  0  0  0  0  0  0  0  0  0
   -2.5001    3.4666    0.1937 C   0  0  0  0  0  0  0  0  0  0  0  0
   -2.4978    4.0064   -0.9473 O   0  0  0  0  0  0  0  0  0  0  0  0
   -3.3188    3.9627    1.2124 O   0  0  0  0  0  0  0  0  0  0  0  0
   -4.1850    5.0771    1.0264 C   0  0  0  0  0  0  0  0  0  0  0  0
   -4.9358    5.3596    2.3177 C   0  0  0  0  0  0  0  0  0  0  0  0
    0.3687   -0.5384   -0.3782 C   0  0  0  0  0  0  0  0  0  0  0  0
    0.9080   -0.3801   -1.6350 C   0  0  0  0  0  0  0  0  0  0  0  0
    2.2606   -0.5997   -1.4865 C   0  0  0  0  0  0  0  0  0  0  0  0
    2.4578   -0.8746   -0.1414 C   0  0  0  0  0  0  0  0  0  0  0  0
    1.3052   -0.8383    0.4885 O   0  0  0  0  0  0  0  0  0  0  0  0
    3.7288   -1.2037    0.5383 C   0  0  0  0  0  0  0  0  0  0  0  0
    5.0107   -0.7652    0.1460 C   0  0  0  0  0  0  0  0  0  0  0  0
    5.3344    0.1390   -1.0228 C   0  0  0  0  0  0  0  0  0  0  0  0
    6.7246    0.8196   -0.9479 C   0  0  0  0  0  0  0  0  0  0  0  0
    7.8329   -0.1061   -1.4762 C   0  0  0  0  0  0  0  0  0  0  0  0
    6.7253    2.1257   -1.7545 C   0  0  0  0  0  0  0  0  0  0  0  0
    6.1299   -1.3987    1.2495 S   0  0  0  0  0  0  0  0  0  0  0  0
    4.9571   -2.1657    2.1663 C   0  0  0  0  0  0  0  0  0  0  0  0
    5.1899   -2.8670    3.2275 N   0  0  0  0  0  0  0  0  0  0  0  0
    3.7214   -1.9656    1.6691 N   0  0  0  0  0  0  0  0  0  0  0  0
   -4.1076   -3.1747   -0.7371 C   0  0  0  0  0  0  0  0  0  0  0  0
   -4.1320   -3.4393   -1.9711 O   0  0  0  0  0  0  0  0  0  0  0  0
   -4.5727   -4.1038    0.2008 O   0  0  0  0  0  0  0  0  0  0  0  0
   -5.1465   -5.3596   -0.1563 C   0  0  0  0  0  0  0  0  0  0  0  0
   -6.5686   -5.1734   -0.6724 C   0  0  0  0  0  0  0  0  0  0  0  0
   -3.5458   -1.8891    0.8451 H   0  0  0  0  0  0  0  0  0  0  0  0
   -4.5849   -0.5923   -1.7693 H   0  0  0  0  0  0  0  0  0  0  0  0
   -5.6074   -1.0060   -0.3401 H   0  0  0  0  0  0  0  0  0  0  0  0
   -4.3154    0.2175   -0.1740 H   0  0  0  0  0  0  0  0  0  0  0  0
   -2.3099   -1.3480   -1.8266 H   0  0  0  0  0  0  0  0  0  0  0  0
   -1.5301    1.4215   -1.4261 H   0  0  0  0  0  0  0  0  0  0  0  0
   -1.8283    1.9517    1.5063 H   0  0  0  0  0  0  0  0  0  0  0  0
    0.1473    2.9524   -0.6600 H   0  0  0  0  0  0  0  0  0  0  0  0
    0.0339    3.6081    1.0187 H   0  0  0  0  0  0  0  0  0  0  0  0
    0.5185    1.9066    0.7678 H   0  0  0  0  0  0  0  0  0  0  0  0
   -3.5896    5.9724    0.7442 H   0  0  0  0  0  0  0  0  0  0  0  0
   -4.9153    4.8542    0.2184 H   0  0  0  0  0  0  0  0  0  0  0  0
   -5.5408    4.4740    2.6062 H   0  0  0  0  0  0  0  0  0  0  0  0
   -5.6125    6.2284    2.1757 H   0  0  0  0  0  0  0  0  0  0  0  0
   -4.2166    5.5913    3.1317 H   0  0  0  0  0  0  0  0  0  0  0  0
    0.3811   -0.1453   -2.5503 H   0  0  0  0  0  0  0  0  0  0  0  0
    2.9902   -0.5954   -2.2817 H   0  0  0  0  0  0  0  0  0  0  0  0
    5.2585   -0.4456   -1.9641 H   0  0  0  0  0  0  0  0  0  0  0  0
    4.5521    0.9281   -1.0501 H   0  0  0  0  0  0  0  0  0  0  0  0
    6.9525    1.0880    0.1073 H   0  0  0  0  0  0  0  0  0  0  0  0
    7.8526   -1.0659   -0.9231 H   0  0  0  0  0  0  0  0  0  0  0  0
    8.8248    0.3787   -1.3528 H   0  0  0  0  0  0  0  0  0  0  0  0
    7.6772   -0.3275   -2.5541 H   0  0  0  0  0  0  0  0  0  0  0  0
    6.4726    1.9291   -2.8189 H   0  0  0  0  0  0  0  0  0  0  0  0
    5.9823    2.8370   -1.3347 H   0  0  0  0  0  0  0  0  0  0  0  0
    7.7246    2.6089   -1.7054 H   0  0  0  0  0  0  0  0  0  0  0  0
    6.1620   -3.0000    3.5852 H   0  0  0  0  0  0  0  0  0  0  0  0
    2.8560   -2.3632    2.1000 H   0  0  0  0  0  0  0  0  0  0  0  0
   -5.1768   -6.0040    0.7474 H   0  0  0  0  0  0  0  0  0  0  0  0
   -4.5209   -5.8682   -0.9218 H   0  0  0  0  0  0  0  0  0  0  0  0
   -7.0187   -6.1643   -0.8923 H   0  0  0  0  0  0  0  0  0  0  0  0
   -7.1856   -4.6599    0.0951 H   0  0  0  0  0  0  0  0  0  0  0  0
   -6.5673   -4.5682   -1.6028 H   0  0  0  0  0  0  0  0  0  0  0  0
  1  2  1  0
  1  3  1  0
  3  4  1  0
  4  5  2  0
  4  6  1  0
  6  7  1  0
  7  8  1  0
  7  9  1  0
  9 10  2  0
  9 11  1  0
 11 12  1  0
 12 13  1  0
  4 14  1  0
 14 15  2  0
 15 16  1  0
 16 17  2  0
 17 18  1  0
 17 19  1  0
 19 20  2  0
 20 21  1  0
 21 22  1  0
 22 23  1  0
 22 24  1  0
 20 25  1  0
 25 26  1  0
 26 27  2  3
 26 28  1  0
  1 29  1  0
 29 30  2  0
 29 31  1  0
 31 32  1  0
 32 33  1  0
 18 14  1  0
 28 19  1  0
  1 34  1  1
  2 35  1  0
  2 36  1  0
  2 37  1  0
  3 38  1  0
  6 39  1  0
  7 40  1  1
  8 41  1  0
  8 42  1  0
  8 43  1  0
 12 44  1  0
 12 45  1  0
 13 46  1  0
 13 47  1  0
 13 48  1  0
 15 49  1  0
 16 50  1  0
 21 51  1  0
 21 52  1  0
 22 53  1  0
 23 54  1  0
 23 55  1  0
 23 56  1  0
 24 57  1  0
 24 58  1  0
 24 59  1  0
 27 60  1  0
 28 61  1  0
 32 62  1  0
 32 63  1  0
 33 64  1  0
 33 65  1  0
 33 66  1  0
M  END
$$$$
