
     RDKit          3D

 50 53  0  0  0  0  0  0  0  0999 V2000
    6.8822   -0.3600    0.3148 C   0  0  0  0  0  0  0  0  0  0  0  0
    5.6807   -0.9439   -0.4193 C   0  0  0  0  0  0  0  0  0  0  0  0
    4.6671    0.0881   -0.6373 N   0  0  0  0  0  0  0  0  0  0  0  0
    4.7915    1.0220   -1.5678 N   0  0  0  0  0  0  0  0  0  0  0  0
    3.6826    1.7856   -1.5397 C   0  0  0  0  0  0  0  0  0  0  0  0
    2.8242    1.3212   -0.5641 C   0  0  0  0  0  0  0  0  0  0  0  0
    3.4807    0.2428   -0.0043 C   0  0  0  0  0  0  0  0  0  0  0  0
    2.9606   -0.5861    1.1030 C   0  0  0  0  0  0  0  0  0  0  0  0
    3.6704   -1.0606    2.2074 C   0  0  0  0  0  0  0  0  0  0  0  0
    2.8483   -1.7239    3.0527 N   0  0  0  0  0  0  0  0  0  0  0  0
    1.6307   -1.6643    2.4930 C   0  0  0  0  0  0  0  0  0  0  0  0
    0.4946   -2.2013    2.9991 N   0  0  0  0  0  0  0  0  0  0  0  0
   -0.6747   -2.0637    2.3061 C   0  0  0  0  0  0  0  0  0  0  0  0
   -0.7089   -1.3706    1.0652 C   0  0  0  0  0  0  0  0  0  0  0  0
    0.4911   -0.8203    0.5588 C   0  0  0  0  0  0  0  0  0  0  0  0
    1.6508   -0.9798    1.3125 C   0  0  0  0  0  0  0  0  0  0  0  0
   -1.9808   -1.2266    0.3124 C   0  0  0  0  0  0  0  0  0  0  0  0
   -2.2899   -0.0221   -0.3424 C   0  0  0  0  0  0  0  0  0  0  0  0
   -3.4911    0.1250   -1.0541 C   0  0  0  0  0  0  0  0  0  0  0  0
   -3.7536    1.4011   -1.7510 C   0  0  0  0  0  0  0  0  0  0  0  0
   -3.8764    1.3890   -3.0064 O   0  0  0  0  0  0  0  0  0  0  0  0
   -3.8579    2.6472   -1.0309 N   0  0  0  0  0  0  0  0  0  0  0  0
   -4.0543    2.6542    0.4232 C   0  0  0  0  0  0  0  0  0  0  0  0
   -3.8503    3.9075   -1.7794 C   0  0  0  0  0  0  0  0  0  0  0  0
   -4.3982   -0.9562   -1.1220 C   0  0  0  0  0  0  0  0  0  0  0  0
   -5.6498   -0.8434   -1.8133 N   0  0  0  0  0  0  0  0  0  0  0  0
   -4.0838   -2.1585   -0.4738 C   0  0  0  0  0  0  0  0  0  0  0  0
   -2.8905   -2.2933    0.2376 C   0  0  0  0  0  0  0  0  0  0  0  0
    7.6210   -1.1629    0.5203 H   0  0  0  0  0  0  0  0  0  0  0  0
    6.5669    0.0945    1.2767 H   0  0  0  0  0  0  0  0  0  0  0  0
    7.3666    0.4205   -0.3094 H   0  0  0  0  0  0  0  0  0  0  0  0
    5.2633   -1.7992    0.1508 H   0  0  0  0  0  0  0  0  0  0  0  0
    6.0156   -1.3398   -1.4022 H   0  0  0  0  0  0  0  0  0  0  0  0
    3.5095    2.6325   -2.1897 H   0  0  0  0  0  0  0  0  0  0  0  0
    1.8628    1.7332   -0.2878 H   0  0  0  0  0  0  0  0  0  0  0  0
    4.7219   -0.9053    2.4011 H   0  0  0  0  0  0  0  0  0  0  0  0
    3.1074   -2.1763    3.9572 H   0  0  0  0  0  0  0  0  0  0  0  0
   -1.5805   -2.4807    2.7261 H   0  0  0  0  0  0  0  0  0  0  0  0
    0.5192   -0.3163   -0.3978 H   0  0  0  0  0  0  0  0  0  0  0  0
   -1.5971    0.8100   -0.2966 H   0  0  0  0  0  0  0  0  0  0  0  0
   -4.3070    3.6685    0.7969 H   0  0  0  0  0  0  0  0  0  0  0  0
   -4.8899    1.9745    0.6938 H   0  0  0  0  0  0  0  0  0  0  0  0
   -3.1277    2.3211    0.9334 H   0  0  0  0  0  0  0  0  0  0  0  0
   -4.7219    3.9412   -2.4668 H   0  0  0  0  0  0  0  0  0  0  0  0
   -3.9017    4.7873   -1.1042 H   0  0  0  0  0  0  0  0  0  0  0  0
   -2.9141    3.9838   -2.3718 H   0  0  0  0  0  0  0  0  0  0  0  0
   -6.2949   -1.6622   -1.8781 H   0  0  0  0  0  0  0  0  0  0  0  0
   -5.9729    0.0567   -2.2303 H   0  0  0  0  0  0  0  0  0  0  0  0
   -4.7698   -2.9953   -0.5164 H   0  0  0  0  0  0  0  0  0  0  0  0
   -2.6716   -3.2403    0.7147 H   0  0  0  0  0  0  0  0  0  0  0  0
  1  2  1  0
  2  3  1  0
  3  4  1  0
  4  5  2  0
  5  6  1  0
  6  7  2  0
  7  8  1  0
  8  9  2  0
  9 10  1  0
 10 11  1  0
 11 12  2  0
 12 13  1  0
 13 14  2  0
 14 15  1  0
 15 16  2  0
 14 17  1  0
 17 18  2  0
 18 19  1  0
 19 20  1  0
 20 21  2  0
 20 22  1  0
 22 23  1  0
 22 24  1  0
 19 25  2  0
 25 26  1  0
 25 27  1  0
 27 28  2  0
  7  3  1  0
 16  8  1  0
 28 17  1  0
 16 11  1  0
  1 29  1  0
  1 30  1  0
  1 31  1  0
  2 32  1  0
  2 33  1  0
  5 34  1  0
  6 35  1  0
  9 36  1  0
 10 37  1  0
 13 38  1  0
 15 39  1  0
 18 40  1  0
 23 41  1  0
 23 42  1  0
 23 43  1  0
 24 44  1  0
 24 45  1  0
 24 46  1  0
 26 47  1  0
 26 48  1  0
 27 49  1  0
 28 50  1  0
M  END
$$$$
