
     RDKit          3D

 31 31  0  0  0  0  0  0  0  0999 V2000
    3.7393   -1.1461    0.5577 C   0  0  2  0  0  0  0  0  0  0  0  0
    4.5319   -2.1679    0.0076 O   0  0  0  0  0  0  0  0  0  0  0  0
    2.5419   -0.8343   -0.3589 C   0  0  0  0  0  0  0  0  0  0  0  0
    1.6067    0.0951    0.2772 N   0  0  0  0  0  0  0  0  0  0  0  0
    0.4217    0.5396   -0.3941 C   0  0  0  0  0  0  0  0  0  0  0  0
    0.1673    0.1350   -1.5616 O   0  0  0  0  0  0  0  0  0  0  0  0
   -0.4718    1.4472    0.2646 N   0  0  0  0  0  0  0  0  0  0  0  0
   -1.7166    1.9073   -0.3466 C   0  0  0  0  0  0  0  0  0  0  0  0
   -2.7376    0.8023   -0.3457 C   0  0  0  0  0  0  0  0  0  0  0  0
   -3.3265    0.3914    0.8615 C   0  0  0  0  0  0  0  0  0  0  0  0
   -4.2609   -0.6489    0.8713 C   0  0  0  0  0  0  0  0  0  0  0  0
   -4.6102   -1.2878   -0.3216 C   0  0  0  0  0  0  0  0  0  0  0  0
   -4.0245   -0.8884   -1.5261 C   0  0  0  0  0  0  0  0  0  0  0  0
   -3.0897    0.1517   -1.5404 C   0  0  0  0  0  0  0  0  0  0  0  0
    4.5756    0.0795    0.8095 C   0  0  0  0  0  0  0  0  0  0  0  0
    5.1836    0.7412   -0.2536 O   0  0  0  0  0  0  0  0  0  0  0  0
    4.7293    0.5077    1.9848 O   0  0  0  0  0  0  0  0  0  0  0  0
    3.3428   -1.5182    1.5282 H   0  0  0  0  0  0  0  0  0  0  0  0
    4.8458   -1.8620   -0.8840 H   0  0  0  0  0  0  0  0  0  0  0  0
    2.0078   -1.7823   -0.5869 H   0  0  0  0  0  0  0  0  0  0  0  0
    2.9010   -0.3997   -1.3177 H   0  0  0  0  0  0  0  0  0  0  0  0
    1.7904    0.4439    1.2454 H   0  0  0  0  0  0  0  0  0  0  0  0
   -0.2237    1.8008    1.2160 H   0  0  0  0  0  0  0  0  0  0  0  0
   -2.1160    2.7660    0.2356 H   0  0  0  0  0  0  0  0  0  0  0  0
   -1.5163    2.2774   -1.3759 H   0  0  0  0  0  0  0  0  0  0  0  0
   -3.0598    0.8757    1.7929 H   0  0  0  0  0  0  0  0  0  0  0  0
   -4.7127   -0.9610    1.8040 H   0  0  0  0  0  0  0  0  0  0  0  0
   -5.3329   -2.0935   -0.3124 H   0  0  0  0  0  0  0  0  0  0  0  0
   -4.2936   -1.3859   -2.4489 H   0  0  0  0  0  0  0  0  0  0  0  0
   -2.6409    0.4471   -2.4806 H   0  0  0  0  0  0  0  0  0  0  0  0
    5.7485    1.5672   -0.0967 H   0  0  0  0  0  0  0  0  0  0  0  0
  1  2  1  0
  1  3  1  0
  3  4  1  0
  4  5  1  0
  5  6  2  0
  5  7  1  0
  7  8  1  0
  8  9  1  0
  9 10  2  0
 10 11  1  0
 11 12  2  0
 12 13  1  0
 13 14  2  0
  1 15  1  0
 15 16  1  0
 15 17  2  0
 14  9  1  0
  1 18  1  1
  2 19  1  0
  3 20  1  0
  3 21  1  0
  4 22  1  0
  7 23  1  0
  8 24  1  0
  8 25  1  0
 10 26  1  0
 11 27  1  0
 12 28  1  0
 13 29  1  0
 14 30  1  0
 16 31  1  0
M  END
$$$$
