
     RDKit          3D

 12 12  0  0  0  0  0  0  0  0999 V2000
   -2.6222   -2.2026   -0.1161 I   0  0  0  0  0  0  0  0  0  0  0  0
   -1.0083   -0.8374   -0.0445 C   0  0  0  0  0  0  0  0  0  0  0  0
    0.3025   -1.3121   -0.0042 C   0  0  0  0  0  0  0  0  0  0  0  0
    1.3426   -0.4386    0.0419 N   0  0  0  0  0  0  0  0  0  0  0  0
    1.1243    0.9048    0.0493 C   0  0  0  0  0  0  0  0  0  0  0  0
    2.1006    1.7008    0.0923 O   0  0  0  0  0  0  0  0  0  0  0  0
   -0.1474    1.3896    0.0105 N   0  0  0  0  0  0  0  0  0  0  0  0
   -1.2144    0.5458   -0.0362 C   0  0  0  0  0  0  0  0  0  0  0  0
   -2.3839    1.0137   -0.0717 O   0  0  0  0  0  0  0  0  0  0  0  0
    0.4931   -2.3779   -0.0095 H   0  0  0  0  0  0  0  0  0  0  0  0
    2.3193   -0.8093    0.0718 H   0  0  0  0  0  0  0  0  0  0  0  0
   -0.3063    2.4233    0.0165 H   0  0  0  0  0  0  0  0  0  0  0  0
  1  2  1  0
  2  3  2  0
  3  4  1  0
  4  5  1  0
  5  6  2  0
  5  7  1  0
  7  8  1  0
  8  9  2  0
  8  2  1  0
  3 10  1  0
  4 11  1  0
  7 12  1  0
M  END
$$$$
