
     RDKit          3D

 46 48  0  0  0  0  0  0  0  0999 V2000
   -0.6674    0.4193    2.7089 C   0  0  2  0  0  0  0  0  0  0  0  0
    0.3137    1.4659    2.1637 C   0  0  0  0  0  0  0  0  0  0  0  0
    1.5334    1.3880    2.8644 O   0  0  0  0  0  0  0  0  0  0  0  0
    2.5427    2.6509    2.3208 P   0  0  0  0  0  5  0  0  0  0  0  0
    1.8594    4.1316    2.7745 O   0  0  0  0  0  0  0  0  0  0  0  0
    3.8952    2.5279    2.9882 O   0  0  0  0  0  0  0  0  0  0  0  0
    2.6975    2.6237    0.6222 O   0  0  0  0  0  0  0  0  0  0  0  0
    3.6699    1.2912    0.1977 P   0  0  0  0  0  5  0  0  0  0  0  0
    3.1115   -0.1154    0.9584 O   0  0  0  0  0  0  0  0  0  0  0  0
    5.0993    1.5645    0.6146 O   0  0  0  0  0  0  0  0  0  0  0  0
    3.5730    1.1040   -1.4932 O   0  0  0  0  0  0  0  0  0  0  0  0
    4.7093   -0.0751   -1.9633 P   0  0  0  0  0  5  0  0  0  0  0  0
    4.4549   -0.4333   -3.5969 O   0  0  0  0  0  0  0  0  0  0  0  0
    4.5238   -1.5017   -1.0661 O   0  0  0  0  0  0  0  0  0  0  0  0
    6.1142    0.4633   -1.7990 O   0  0  0  0  0  0  0  0  0  0  0  0
   -0.1662   -1.0093    2.5087 C   0  0  0  0  0  0  0  0  0  0  0  0
   -0.8764   -1.4334    1.2555 C   0  0  1  0  0  0  0  0  0  0  0  0
   -1.1285   -2.8176    1.2142 O   0  0  0  0  0  0  0  0  0  0  0  0
   -2.1526   -0.5986    1.2949 C   0  0  1  0  0  0  0  0  0  0  0  0
   -1.9104    0.5695    2.0512 O   0  0  0  0  0  0  0  0  0  0  0  0
   -2.5787   -0.2446   -0.0600 N   0  0  0  0  0  0  0  0  0  0  0  0
   -2.1798    0.8118   -0.8168 C   0  0  0  0  0  0  0  0  0  0  0  0
   -2.6841    0.7910   -2.0818 N   0  0  0  0  0  0  0  0  0  0  0  0
   -3.4143   -0.3402   -2.0914 C   0  0  0  0  0  0  0  0  0  0  0  0
   -4.1475   -0.9110   -3.1255 C   0  0  0  0  0  0  0  0  0  0  0  0
   -4.2441   -0.2941   -4.4093 N   0  0  0  0  0  0  0  0  0  0  0  0
   -4.7761   -2.0986   -2.8751 N   0  0  0  0  0  0  0  0  0  0  0  0
   -4.6865   -2.7108   -1.6503 C   0  0  0  0  0  0  0  0  0  0  0  0
   -3.9601   -2.1415   -0.6414 N   0  0  0  0  0  0  0  0  0  0  0  0
   -3.3446   -0.9605   -0.8917 C   0  0  0  0  0  0  0  0  0  0  0  0
   -0.8137    0.6086    3.7952 H   0  0  0  0  0  0  0  0  0  0  0  0
    0.4724    1.2791    1.0779 H   0  0  0  0  0  0  0  0  0  0  0  0
   -0.1562    2.4676    2.2961 H   0  0  0  0  0  0  0  0  0  0  0  0
    2.4376    4.8163    2.3528 H   0  0  0  0  0  0  0  0  0  0  0  0
    2.3166   -0.3851    0.4333 H   0  0  0  0  0  0  0  0  0  0  0  0
    5.0899   -1.1667   -3.7970 H   0  0  0  0  0  0  0  0  0  0  0  0
    5.2047   -1.4499   -0.3486 H   0  0  0  0  0  0  0  0  0  0  0  0
    0.9368   -1.0866    2.4025 H   0  0  0  0  0  0  0  0  0  0  0  0
   -0.4854   -1.6325    3.3735 H   0  0  0  0  0  0  0  0  0  0  0  0
   -0.2562   -1.1514    0.3750 H   0  0  0  0  0  0  0  0  0  0  0  0
   -1.6843   -3.0577    2.0013 H   0  0  0  0  0  0  0  0  0  0  0  0
   -2.9699   -1.1609    1.7994 H   0  0  0  0  0  0  0  0  0  0  0  0
   -1.5158    1.5882   -0.4605 H   0  0  0  0  0  0  0  0  0  0  0  0
   -3.7651    0.6124   -4.6079 H   0  0  0  0  0  0  0  0  0  0  0  0
   -4.7998   -0.7470   -5.1683 H   0  0  0  0  0  0  0  0  0  0  0  0
   -5.1924   -3.6515   -1.4822 H   0  0  0  0  0  0  0  0  0  0  0  0
  1  2  1  0
  2  3  1  0
  3  4  1  0
  4  5  1  0
  4  6  2  0
  4  7  1  0
  7  8  1  0
  8  9  1  0
  8 10  2  0
  8 11  1  0
 11 12  1  0
 12 13  1  0
 12 14  1  0
 12 15  2  0
  1 16  1  0
 16 17  1  0
 17 18  1  0
 17 19  1  0
 19 20  1  0
 19 21  1  0
 21 22  1  0
 22 23  2  0
 23 24  1  0
 24 25  2  0
 25 26  1  0
 25 27  1  0
 27 28  2  0
 28 29  1  0
 29 30  2  0
 20  1  1  0
 30 21  1  0
 30 24  1  0
  1 31  1  1
  2 32  1  0
  2 33  1  0
  5 34  1  0
  9 35  1  0
 13 36  1  0
 14 37  1  0
 16 38  1  0
 16 39  1  0
 17 40  1  6
 18 41  1  0
 19 42  1  1
 22 43  1  0
 26 44  1  0
 26 45  1  0
 28 46  1  0
M  END
$$$$
