
     RDKit          3D

 65 67  0  0  0  0  0  0  0  0999 V2000
   -5.5808    5.4351   -0.8840 C   0  0  0  0  0  0  0  0  0  0  0  0
   -4.6587    4.5170   -0.1379 C   0  0  0  0  0  0  0  0  0  0  0  0
   -3.2871    4.7992   -0.0645 C   0  0  0  0  0  0  0  0  0  0  0  0
   -2.4201    3.9234    0.5956 C   0  0  0  0  0  0  0  0  0  0  0  0
   -2.9102    2.7457    1.1851 C   0  0  0  0  0  0  0  0  0  0  0  0
   -4.2836    2.4570    1.0929 C   0  0  0  0  0  0  0  0  0  0  0  0
   -5.1488    3.3328    0.4310 C   0  0  0  0  0  0  0  0  0  0  0  0
   -1.9869    1.8071    1.8576 C   0  0  0  0  0  0  0  0  0  0  0  0
   -2.4399    0.7853    2.4444 O   0  0  0  0  0  0  0  0  0  0  0  0
   -0.6082    2.0574    1.8544 O   0  0  0  0  0  0  0  0  0  0  0  0
    0.3707    1.0627    1.9926 C   0  0  0  0  0  0  0  0  0  0  0  0
    0.2610   -0.1813    1.3372 C   0  0  0  0  0  0  0  0  0  0  0  0
   -0.8331   -0.4015    0.4875 O   0  0  0  0  0  0  0  0  0  0  0  0
   -1.4654   -1.6297    0.2506 C   0  0  0  0  0  0  0  0  0  0  0  0
   -1.1394   -2.6590    0.9031 O   0  0  0  0  0  0  0  0  0  0  0  0
   -2.5766   -1.6917   -0.7234 C   0  0  0  0  0  0  0  0  0  0  0  0
   -3.1879   -2.9174   -1.0417 C   0  0  0  0  0  0  0  0  0  0  0  0
   -4.2488   -2.9646   -1.9511 C   0  0  0  0  0  0  0  0  0  0  0  0
   -4.7094   -1.7905   -2.5643 C   0  0  0  0  0  0  0  0  0  0  0  0
   -5.8755   -1.8367   -3.5066 C   0  0  0  0  0  0  0  0  0  0  0  0
   -4.1155   -0.5638   -2.2350 C   0  0  0  0  0  0  0  0  0  0  0  0
   -3.0530   -0.5149   -1.3285 C   0  0  0  0  0  0  0  0  0  0  0  0
    1.2831   -1.1361    1.4911 C   0  0  0  0  0  0  0  0  0  0  0  0
    2.3994   -0.8668    2.3005 C   0  0  0  0  0  0  0  0  0  0  0  0
    2.5035    0.3848    2.9284 C   0  0  0  0  0  0  0  0  0  0  0  0
    1.5000    1.3412    2.7680 C   0  0  0  0  0  0  0  0  0  0  0  0
    3.5129   -1.8839    2.4250 C   0  0  0  0  0  0  0  0  0  0  0  0
    3.8929   -1.9909    3.7734 O   0  0  0  0  0  0  0  0  0  0  0  0
    4.7275   -1.4851    1.5683 C   0  0  0  0  0  0  0  0  0  0  0  0
    4.3694   -1.4889    0.1377 N   0  0  0  0  0  0  0  0  0  0  0  0
    5.5172   -1.4905   -0.8043 C   0  0  0  0  0  0  0  0  0  0  0  0
    6.5058   -0.3393   -0.5097 C   0  0  0  0  0  0  0  0  0  0  0  0
    6.2547   -2.8470   -0.7597 C   0  0  0  0  0  0  0  0  0  0  0  0
    4.9613   -1.3033   -2.2322 C   0  0  0  0  0  0  0  0  0  0  0  0
   -5.2216    6.4846   -0.8244 H   0  0  0  0  0  0  0  0  0  0  0  0
   -6.6040    5.3977   -0.4529 H   0  0  0  0  0  0  0  0  0  0  0  0
   -5.6252    5.1273   -1.9495 H   0  0  0  0  0  0  0  0  0  0  0  0
   -2.8877    5.6970   -0.5201 H   0  0  0  0  0  0  0  0  0  0  0  0
   -1.3659    4.1668    0.6386 H   0  0  0  0  0  0  0  0  0  0  0  0
   -4.6884    1.5485    1.5212 H   0  0  0  0  0  0  0  0  0  0  0  0
   -6.2010    3.0859    0.3605 H   0  0  0  0  0  0  0  0  0  0  0  0
   -2.8490   -3.8395   -0.5862 H   0  0  0  0  0  0  0  0  0  0  0  0
   -4.7118   -3.9176   -2.1761 H   0  0  0  0  0  0  0  0  0  0  0  0
   -5.9034   -2.8062   -4.0483 H   0  0  0  0  0  0  0  0  0  0  0  0
   -5.8021   -1.0243   -4.2608 H   0  0  0  0  0  0  0  0  0  0  0  0
   -6.8181   -1.7147   -2.9334 H   0  0  0  0  0  0  0  0  0  0  0  0
   -4.4756    0.3562   -2.6791 H   0  0  0  0  0  0  0  0  0  0  0  0
   -2.6137    0.4468   -1.0941 H   0  0  0  0  0  0  0  0  0  0  0  0
    1.2421   -2.0672    0.9427 H   0  0  0  0  0  0  0  0  0  0  0  0
    3.3689    0.6247    3.5337 H   0  0  0  0  0  0  0  0  0  0  0  0
    1.5959    2.3031    3.2555 H   0  0  0  0  0  0  0  0  0  0  0  0
    3.1458   -2.8780    2.0745 H   0  0  0  0  0  0  0  0  0  0  0  0
    4.3970   -2.8415    3.8662 H   0  0  0  0  0  0  0  0  0  0  0  0
    5.0860   -0.4776    1.8768 H   0  0  0  0  0  0  0  0  0  0  0  0
    5.5353   -2.2143    1.7764 H   0  0  0  0  0  0  0  0  0  0  0  0
    3.7932   -0.6318   -0.0402 H   0  0  0  0  0  0  0  0  0  0  0  0
    7.0272   -0.4945    0.4583 H   0  0  0  0  0  0  0  0  0  0  0  0
    7.2839   -0.2805   -1.3012 H   0  0  0  0  0  0  0  0  0  0  0  0
    5.9686    0.6326   -0.4715 H   0  0  0  0  0  0  0  0  0  0  0  0
    6.8415   -2.9693    0.1732 H   0  0  0  0  0  0  0  0  0  0  0  0
    5.5271   -3.6836   -0.8346 H   0  0  0  0  0  0  0  0  0  0  0  0
    6.9741   -2.9309   -1.6030 H   0  0  0  0  0  0  0  0  0  0  0  0
    5.7770   -1.3325   -2.9871 H   0  0  0  0  0  0  0  0  0  0  0  0
    4.4415   -0.3254   -2.3258 H   0  0  0  0  0  0  0  0  0  0  0  0
    4.2321   -2.1075   -2.4710 H   0  0  0  0  0  0  0  0  0  0  0  0
  1  2  1  0
  2  3  2  0
  3  4  1  0
  4  5  2  0
  5  6  1  0
  6  7  2  0
  5  8  1  0
  8  9  2  0
  8 10  1  0
 10 11  1  0
 11 12  1  0
 12 13  1  0
 13 14  1  0
 14 15  2  0
 14 16  1  0
 16 17  2  0
 17 18  1  0
 18 19  2  0
 19 20  1  0
 19 21  1  0
 21 22  2  0
 12 23  2  0
 23 24  1  0
 24 25  2  0
 25 26  1  0
 24 27  1  0
 27 28  1  0
 27 29  1  0
 29 30  1  0
 30 31  1  0
 31 32  1  0
 31 33  1  0
 31 34  1  0
  7  2  1  0
 26 11  2  0
 22 16  1  0
  1 35  1  0
  1 36  1  0
  1 37  1  0
  3 38  1  0
  4 39  1  0
  6 40  1  0
  7 41  1  0
 17 42  1  0
 18 43  1  0
 20 44  1  0
 20 45  1  0
 20 46  1  0
 21 47  1  0
 22 48  1  0
 23 49  1  0
 25 50  1  0
 26 51  1  0
 27 52  1  0
 28 53  1  0
 29 54  1  0
 29 55  1  0
 30 56  1  0
 32 57  1  0
 32 58  1  0
 32 59  1  0
 33 60  1  0
 33 61  1  0
 33 62  1  0
 34 63  1  0
 34 64  1  0
 34 65  1  0
M  END
$$$$
