
     RDKit          3D

 34 35  0  0  0  0  0  0  0  0999 V2000
    5.4397   -1.3734    1.5723 N   0  0  0  0  0  0  0  0  0  0  0  0
    5.2630   -0.9044   -0.0831 S   0  0  0  0  0  6  0  0  0  0  0  0
    6.1677    0.2590   -0.3748 O   0  0  0  0  0  0  0  0  0  0  0  0
    5.6438   -2.0650   -0.9597 O   0  0  0  0  0  0  0  0  0  0  0  0
    3.5942   -0.4395   -0.3960 C   0  0  0  0  0  0  0  0  0  0  0  0
    3.0123   -0.6889   -1.6450 C   0  0  0  0  0  0  0  0  0  0  0  0
    1.6890   -0.3129   -1.8931 C   0  0  0  0  0  0  0  0  0  0  0  0
    0.9304    0.3307   -0.8988 C   0  0  0  0  0  0  0  0  0  0  0  0
    1.5206    0.5737    0.3551 C   0  0  0  0  0  0  0  0  0  0  0  0
    2.8439    0.1955    0.6007 C   0  0  0  0  0  0  0  0  0  0  0  0
   -0.4746    0.7174   -1.1710 C   0  0  0  0  0  0  0  0  0  0  0  0
   -1.1163    0.1197   -2.0781 O   0  0  0  0  0  0  0  0  0  0  0  0
   -1.1110    1.7708   -0.4292 N   0  0  0  0  0  0  0  0  0  0  0  0
   -2.5502    2.0127   -0.4979 C   0  0  0  0  0  0  0  0  0  0  0  0
   -3.2940    0.9207    0.2211 C   0  0  0  0  0  0  0  0  0  0  0  0
   -3.2449    0.8438    1.6225 C   0  0  0  0  0  0  0  0  0  0  0  0
   -3.9123   -0.1843    2.2961 C   0  0  0  0  0  0  0  0  0  0  0  0
   -3.8607   -0.2498    3.6496 F   0  0  0  0  0  0  0  0  0  0  0  0
   -4.6288   -1.1448    1.5746 C   0  0  0  0  0  0  0  0  0  0  0  0
   -5.2746   -2.1422    2.2287 F   0  0  0  0  0  0  0  0  0  0  0  0
   -4.6762   -1.0784    0.1782 C   0  0  0  0  0  0  0  0  0  0  0  0
   -5.3662   -2.0116   -0.5232 F   0  0  0  0  0  0  0  0  0  0  0  0
   -4.0095   -0.0512   -0.4977 C   0  0  0  0  0  0  0  0  0  0  0  0
    4.8283   -2.2075    1.7205 H   0  0  0  0  0  0  0  0  0  0  0  0
    6.4256   -1.6960    1.6955 H   0  0  0  0  0  0  0  0  0  0  0  0
    3.5816   -1.1724   -2.4285 H   0  0  0  0  0  0  0  0  0  0  0  0
    1.2625   -0.5152   -2.8679 H   0  0  0  0  0  0  0  0  0  0  0  0
    0.9587    1.0341    1.1566 H   0  0  0  0  0  0  0  0  0  0  0  0
    3.2810    0.3947    1.5709 H   0  0  0  0  0  0  0  0  0  0  0  0
   -0.5334    2.4222    0.1475 H   0  0  0  0  0  0  0  0  0  0  0  0
   -2.7837    2.9865   -0.0148 H   0  0  0  0  0  0  0  0  0  0  0  0
   -2.8693    2.0923   -1.5601 H   0  0  0  0  0  0  0  0  0  0  0  0
   -2.6871    1.5787    2.1900 H   0  0  0  0  0  0  0  0  0  0  0  0
   -4.0493   -0.0150   -1.5793 H   0  0  0  0  0  0  0  0  0  0  0  0
  1  2  1  0
  2  3  2  0
  2  4  2  0
  2  5  1  0
  5  6  2  0
  6  7  1  0
  7  8  2  0
  8  9  1  0
  9 10  2  0
  8 11  1  0
 11 12  2  0
 11 13  1  0
 13 14  1  0
 14 15  1  0
 15 16  2  0
 16 17  1  0
 17 18  1  0
 17 19  2  0
 19 20  1  0
 19 21  1  0
 21 22  1  0
 21 23  2  0
 10  5  1  0
 23 15  1  0
  1 24  1  0
  1 25  1  0
  6 26  1  0
  7 27  1  0
  9 28  1  0
 10 29  1  0
 13 30  1  0
 14 31  1  0
 14 32  1  0
 16 33  1  0
 23 34  1  0
M  END
$$$$
