
     RDKit          3D

 37 40  0  0  0  0  0  0  0  0999 V2000
    2.9573   -0.4698   -2.8908 O   0  0  0  0  0  0  0  0  0  0  0  0
    3.3209   -1.4264   -1.9485 C   0  0  0  0  0  0  0  0  0  0  0  0
    3.1523   -2.6504   -2.1951 O   0  0  0  0  0  0  0  0  0  0  0  0
    3.8683   -0.9954   -0.6261 C   0  0  0  0  0  0  0  0  0  0  0  0
    2.7782   -0.5673    0.2493 N   0  0  0  0  0  0  0  0  0  0  0  0
    2.3169    0.7002    0.3748 C   0  0  0  0  0  0  0  0  0  0  0  0
    1.2160    0.7296    1.2240 C   0  0  0  0  0  0  0  0  0  0  0  0
    0.3622    1.9212    1.5288 C   0  0  0  0  0  0  0  0  0  0  0  0
   -0.7941    1.9694    0.5852 C   0  0  0  0  0  0  0  0  0  0  0  0
   -1.9840    1.3716    0.8400 N   0  0  0  0  0  0  0  0  0  0  0  0
   -2.8282    1.5002   -0.2152 C   0  0  0  0  0  0  0  0  0  0  0  0
   -2.3106    2.1813   -1.3062 C   0  0  0  0  0  0  0  0  0  0  0  0
   -0.7356    2.6513   -0.9649 S   0  0  0  0  0  0  0  0  0  0  0  0
   -3.0515    2.3862   -2.4680 C   0  0  0  0  0  0  0  0  0  0  0  0
   -2.5246    3.0524   -3.5250 F   0  0  0  0  0  0  0  0  0  0  0  0
   -4.3611    1.8823   -2.5170 C   0  0  0  0  0  0  0  0  0  0  0  0
   -4.8984    1.1876   -1.4143 C   0  0  0  0  0  0  0  0  0  0  0  0
   -6.1639    0.7045   -1.4756 F   0  0  0  0  0  0  0  0  0  0  0  0
   -4.1285    0.9921   -0.2533 C   0  0  0  0  0  0  0  0  0  0  0  0
   -4.6405    0.3212    0.8086 F   0  0  0  0  0  0  0  0  0  0  0  0
    0.9915   -0.5825    1.5965 C   0  0  0  0  0  0  0  0  0  0  0  0
    1.9580   -1.3452    0.9879 C   0  0  0  0  0  0  0  0  0  0  0  0
    1.9868   -2.7354    1.1345 C   0  0  0  0  0  0  0  0  0  0  0  0
    0.9970   -3.3351    1.9337 C   0  0  0  0  0  0  0  0  0  0  0  0
    0.0047   -2.5474    2.5564 C   0  0  0  0  0  0  0  0  0  0  0  0
   -0.0075   -1.1519    2.3866 C   0  0  0  0  0  0  0  0  0  0  0  0
    2.5683   -0.7433   -3.7852 H   0  0  0  0  0  0  0  0  0  0  0  0
    4.5797   -0.1558   -0.7822 H   0  0  0  0  0  0  0  0  0  0  0  0
    4.4359   -1.8251   -0.1526 H   0  0  0  0  0  0  0  0  0  0  0  0
    2.7338    1.5541   -0.1444 H   0  0  0  0  0  0  0  0  0  0  0  0
    0.9627    2.8506    1.4299 H   0  0  0  0  0  0  0  0  0  0  0  0
   -0.0069    1.8637    2.5748 H   0  0  0  0  0  0  0  0  0  0  0  0
   -4.9602    2.0269   -3.4067 H   0  0  0  0  0  0  0  0  0  0  0  0
    2.7395   -3.3411    0.6482 H   0  0  0  0  0  0  0  0  0  0  0  0
    0.9928   -4.4090    2.0676 H   0  0  0  0  0  0  0  0  0  0  0  0
   -0.7550   -3.0212    3.1643 H   0  0  0  0  0  0  0  0  0  0  0  0
   -0.7721   -0.5443    2.8528 H   0  0  0  0  0  0  0  0  0  0  0  0
  1  2  1  0
  2  3  2  0
  2  4  1  0
  4  5  1  0
  5  6  1  0
  6  7  2  0
  7  8  1  0
  8  9  1  0
  9 10  2  0
 10 11  1  0
 11 12  2  0
 12 13  1  0
 12 14  1  0
 14 15  1  0
 14 16  2  0
 16 17  1  0
 17 18  1  0
 17 19  2  0
 19 20  1  0
  7 21  1  0
 21 22  2  0
 22 23  1  0
 23 24  2  0
 24 25  1  0
 25 26  2  0
 22  5  1  0
 13  9  1  0
 26 21  1  0
 19 11  1  0
  1 27  1  0
  4 28  1  0
  4 29  1  0
  6 30  1  0
  8 31  1  0
  8 32  1  0
 16 33  1  0
 23 34  1  0
 24 35  1  0
 25 36  1  0
 26 37  1  0
M  END
$$$$
