
     RDKit          3D

 24 24  0  0  0  0  0  0  0  0999 V2000
    6.3286    0.4737    0.3357 O   0  0  0  0  0  1  0  0  0  0  0  0
    5.0251    0.8071    0.0565 N   0  0  0  0  0  4  0  0  0  0  0  0
    4.7414    1.9866   -0.2398 O   0  0  0  0  0  0  0  0  0  0  0  0
    4.0490   -0.1682    0.1079 O   0  0  0  0  0  0  0  0  0  0  0  0
    2.6822    0.1165   -0.1710 C   0  0  0  0  0  0  0  0  0  0  0  0
    1.8577   -1.1605   -0.0362 C   0  0  0  0  0  0  0  0  0  0  0  0
    0.4570   -0.9050   -0.3667 N   0  0  0  0  0  0  0  0  0  0  0  0
   -0.4458   -0.2629    0.5501 C   0  0  0  0  0  0  0  0  0  0  0  0
   -0.0065    0.1881    1.6435 O   0  0  0  0  0  0  0  0  0  0  0  0
   -1.8851   -0.1057    0.2293 C   0  0  0  0  0  0  0  0  0  0  0  0
   -2.6346    0.9201    0.8300 C   0  0  0  0  0  0  0  0  0  0  0  0
   -3.9904    1.0674    0.5326 C   0  0  0  0  0  0  0  0  0  0  0  0
   -4.5948    0.1813   -0.3586 C   0  0  0  0  0  0  0  0  0  0  0  0
   -3.8665   -0.8171   -0.9231 N   0  0  0  0  0  0  0  0  0  0  0  0
   -2.5435   -0.9810   -0.6537 C   0  0  0  0  0  0  0  0  0  0  0  0
    2.5907    0.5094   -1.2069 H   0  0  0  0  0  0  0  0  0  0  0  0
    2.3145    0.8845    0.5423 H   0  0  0  0  0  0  0  0  0  0  0  0
    2.2633   -1.9245   -0.7349 H   0  0  0  0  0  0  0  0  0  0  0  0
    1.9378   -1.5653    0.9961 H   0  0  0  0  0  0  0  0  0  0  0  0
    0.1245   -1.1931   -1.3133 H   0  0  0  0  0  0  0  0  0  0  0  0
   -2.1700    1.6141    1.5195 H   0  0  0  0  0  0  0  0  0  0  0  0
   -4.5671    1.8616    0.9889 H   0  0  0  0  0  0  0  0  0  0  0  0
   -5.6449    0.2830   -0.5976 H   0  0  0  0  0  0  0  0  0  0  0  0
   -2.0226   -1.8102   -1.1108 H   0  0  0  0  0  0  0  0  0  0  0  0
  1  2  1  0
  2  3  2  0
  2  4  1  0
  4  5  1  0
  5  6  1  0
  6  7  1  0
  7  8  1  0
  8  9  2  0
  8 10  1  0
 10 11  2  0
 11 12  1  0
 12 13  2  0
 13 14  1  0
 14 15  2  0
 15 10  1  0
  5 16  1  0
  5 17  1  0
  6 18  1  0
  6 19  1  0
  7 20  1  0
 11 21  1  0
 12 22  1  0
 13 23  1  0
 15 24  1  0
M  CHG  2   1  -1   2   1
M  END
$$$$
