
     RDKit          3D

 39 39  0  0  0  0  0  0  0  0999 V2000
   -1.3041    5.3089    0.1739 C   0  0  0  0  0  0  0  0  0  0  0  0
   -1.3135    3.9382   -0.2058 O   0  0  0  0  0  0  0  0  0  0  0  0
   -0.9935    2.9084    0.6839 C   0  0  0  0  0  0  0  0  0  0  0  0
   -0.6822    3.1682    1.8793 O   0  0  0  0  0  0  0  0  0  0  0  0
   -1.0311    1.4843    0.2079 C   0  0  2  0  0  0  0  0  0  0  0  0
   -2.1189    0.6970    0.9596 C   0  0  0  0  0  0  0  0  0  0  0  0
   -2.2402   -0.7100    0.4325 C   0  0  0  0  0  0  0  0  0  0  0  0
   -1.5675   -1.7678    1.0681 C   0  0  0  0  0  0  0  0  0  0  0  0
   -1.6364   -3.0622    0.5441 C   0  0  0  0  0  0  0  0  0  0  0  0
   -2.3723   -3.3092   -0.6178 C   0  0  0  0  0  0  0  0  0  0  0  0
   -3.0393   -2.2617   -1.2590 C   0  0  0  0  0  0  0  0  0  0  0  0
   -2.9718   -0.9653   -0.7393 C   0  0  0  0  0  0  0  0  0  0  0  0
    0.2820    0.8614    0.4079 N   0  0  0  0  0  0  0  0  0  0  0  0
    0.8815   -0.0126   -0.5622 C   0  0  0  0  0  0  0  0  0  0  0  0
    0.3489   -0.1639   -1.6961 O   0  0  0  0  0  0  0  0  0  0  0  0
    2.1187   -0.7971   -0.2137 C   0  0  1  0  0  0  0  0  0  0  0  0
    1.7575   -2.2065   -0.0394 N   0  0  0  0  0  0  0  0  0  0  0  0
    3.2023   -0.6113   -1.2970 C   0  0  0  0  0  0  0  0  0  0  0  0
    4.5051   -1.2229   -0.8824 C   0  0  0  0  0  0  0  0  0  0  0  0
    5.3212   -0.5615    0.0299 O   0  0  0  0  0  0  0  0  0  0  0  0
    4.8490   -2.3473   -1.3358 O   0  0  0  0  0  0  0  0  0  0  0  0
   -0.2869    5.6039    0.5080 H   0  0  0  0  0  0  0  0  0  0  0  0
   -2.0334    5.4813    0.9936 H   0  0  0  0  0  0  0  0  0  0  0  0
   -1.5905    5.9309   -0.6989 H   0  0  0  0  0  0  0  0  0  0  0  0
   -1.2881    1.5007   -0.8744 H   0  0  0  0  0  0  0  0  0  0  0  0
   -1.8891    0.6772    2.0482 H   0  0  0  0  0  0  0  0  0  0  0  0
   -3.0975    1.2137    0.8436 H   0  0  0  0  0  0  0  0  0  0  0  0
   -0.9801   -1.5877    1.9599 H   0  0  0  0  0  0  0  0  0  0  0  0
   -1.1134   -3.8725    1.0353 H   0  0  0  0  0  0  0  0  0  0  0  0
   -2.4224   -4.3113   -1.0236 H   0  0  0  0  0  0  0  0  0  0  0  0
   -3.6042   -2.4533   -2.1621 H   0  0  0  0  0  0  0  0  0  0  0  0
   -3.4818   -0.1596   -1.2528 H   0  0  0  0  0  0  0  0  0  0  0  0
    0.7193    0.9268    1.3554 H   0  0  0  0  0  0  0  0  0  0  0  0
    2.5206   -0.4131    0.7507 H   0  0  0  0  0  0  0  0  0  0  0  0
    2.5728   -2.7219    0.3640 H   0  0  0  0  0  0  0  0  0  0  0  0
    1.5415   -2.6327   -0.9704 H   0  0  0  0  0  0  0  0  0  0  0  0
    2.8684   -1.0564   -2.2604 H   0  0  0  0  0  0  0  0  0  0  0  0
    3.3696    0.4743   -1.4694 H   0  0  0  0  0  0  0  0  0  0  0  0
    6.1994   -0.9673    0.3304 H   0  0  0  0  0  0  0  0  0  0  0  0
  1  2  1  0
  2  3  1  0
  3  4  2  0
  3  5  1  0
  5  6  1  0
  6  7  1  0
  7  8  2  0
  8  9  1  0
  9 10  2  0
 10 11  1  0
 11 12  2  0
  5 13  1  0
 13 14  1  0
 14 15  2  0
 14 16  1  0
 16 17  1  0
 16 18  1  0
 18 19  1  0
 19 20  1  0
 19 21  2  0
 12  7  1  0
  1 22  1  0
  1 23  1  0
  1 24  1  0
  5 25  1  6
  6 26  1  0
  6 27  1  0
  8 28  1  0
  9 29  1  0
 10 30  1  0
 11 31  1  0
 12 32  1  0
 13 33  1  0
 16 34  1  1
 17 35  1  0
 17 36  1  0
 18 37  1  0
 18 38  1  0
 20 39  1  0
M  END
$$$$
