
     RDKit          3D

 60 64  0  0  0  0  0  0  0  0999 V2000
   -4.9643   -2.8820    1.4048 C   0  0  0  0  0  0  0  0  0  0  0  0
   -3.7687   -1.9912    1.7235 C   0  0  0  0  0  0  0  0  0  0  0  0
   -2.9318   -1.7579    0.4994 C   0  0  0  0  0  0  0  0  0  0  0  0
   -3.2586   -0.9687   -0.6100 C   0  0  0  0  0  0  0  0  0  0  0  0
   -4.4755   -0.1664   -0.8385 C   0  0  0  0  0  0  0  0  0  0  0  0
   -5.0800   -0.2818   -1.9386 O   0  0  0  0  0  0  0  0  0  0  0  0
   -4.9894    0.7774    0.1785 C   0  0  0  0  0  0  0  0  0  0  0  0
   -4.1111    1.4371    1.0542 C   0  0  0  0  0  0  0  0  0  0  0  0
   -4.5970    2.3350    2.0107 C   0  0  0  0  0  0  0  0  0  0  0  0
   -3.3350    3.1825    3.1775 Br  0  0  0  0  0  0  0  0  0  0  0  0
   -5.9795    2.5936    2.0925 C   0  0  0  0  0  0  0  0  0  0  0  0
   -6.5012    3.4815    3.0352 O   0  0  0  0  0  0  0  0  0  0  0  0
   -6.8561    1.9481    1.2081 C   0  0  0  0  0  0  0  0  0  0  0  0
   -8.7395    2.2792    1.2888 Br  0  0  0  0  0  0  0  0  0  0  0  0
   -6.3633    1.0513    0.2553 C   0  0  0  0  0  0  0  0  0  0  0  0
   -2.2143   -1.1538   -1.4914 C   0  0  0  0  0  0  0  0  0  0  0  0
   -1.3291   -1.9998   -0.8777 C   0  0  0  0  0  0  0  0  0  0  0  0
   -1.7696   -2.3556    0.3046 O   0  0  0  0  0  0  0  0  0  0  0  0
   -0.1401   -2.3858   -1.4895 C   0  0  0  0  0  0  0  0  0  0  0  0
    0.1434   -1.8713   -2.7712 C   0  0  0  0  0  0  0  0  0  0  0  0
   -0.7757   -0.9996   -3.4045 C   0  0  0  0  0  0  0  0  0  0  0  0
   -1.9704   -0.6305   -2.7607 C   0  0  0  0  0  0  0  0  0  0  0  0
    1.6573   -2.2959   -3.5628 S   0  0  0  0  0  6  0  0  0  0  0  0
    1.5139   -3.6579   -4.1808 O   0  0  0  0  0  0  0  0  0  0  0  0
    1.9930   -1.3015   -4.6391 O   0  0  0  0  0  0  0  0  0  0  0  0
    2.9438   -2.3262   -2.3980 N   0  0  0  0  0  0  0  0  0  0  0  0
    3.1877   -1.2703   -1.4519 C   0  0  0  0  0  0  0  0  0  0  0  0
    4.0157   -1.5190   -0.3462 C   0  0  0  0  0  0  0  0  0  0  0  0
    4.2594   -0.5184    0.5984 C   0  0  0  0  0  0  0  0  0  0  0  0
    3.6860    0.7493    0.4461 C   0  0  0  0  0  0  0  0  0  0  0  0
    2.8648    1.0085   -0.6579 C   0  0  0  0  0  0  0  0  0  0  0  0
    2.6204    0.0092   -1.6041 C   0  0  0  0  0  0  0  0  0  0  0  0
    4.0036    2.0056    1.6375 S   0  0  0  0  0  6  0  0  0  0  0  0
    3.7480    3.3667    1.0526 O   0  0  0  0  0  0  0  0  0  0  0  0
    3.0956    1.8009    2.8169 O   0  0  0  0  0  0  0  0  0  0  0  0
    5.6535    1.9187    2.1610 N   0  0  0  0  0  0  0  0  0  0  0  0
    6.7546    2.0632    1.2588 C   0  0  0  0  0  0  0  0  0  0  0  0
    8.0407    1.9626    1.6558 N   0  0  0  0  0  0  0  0  0  0  0  0
    8.9017    2.1329    0.6171 C   0  0  0  0  0  0  0  0  0  0  0  0
    8.3027    2.3704   -0.6152 C   0  0  0  0  0  0  0  0  0  0  0  0
    6.6353    2.3669   -0.3937 S   0  0  0  0  0  0  0  0  0  0  0  0
   -4.6207   -3.8557    0.9945 H   0  0  0  0  0  0  0  0  0  0  0  0
   -5.6315   -2.3880    0.6671 H   0  0  0  0  0  0  0  0  0  0  0  0
   -5.5437   -3.0711    2.3328 H   0  0  0  0  0  0  0  0  0  0  0  0
   -3.1466   -2.4870    2.4990 H   0  0  0  0  0  0  0  0  0  0  0  0
   -4.1217   -1.0297    2.1451 H   0  0  0  0  0  0  0  0  0  0  0  0
   -3.0448    1.2566    0.9946 H   0  0  0  0  0  0  0  0  0  0  0  0
   -5.9241    3.9784    3.7011 H   0  0  0  0  0  0  0  0  0  0  0  0
   -7.0560    0.5582   -0.4157 H   0  0  0  0  0  0  0  0  0  0  0  0
    0.5471   -3.0529   -0.9851 H   0  0  0  0  0  0  0  0  0  0  0  0
   -0.5628   -0.6017   -4.3881 H   0  0  0  0  0  0  0  0  0  0  0  0
   -2.6694    0.0451   -3.2360 H   0  0  0  0  0  0  0  0  0  0  0  0
    3.4915   -3.2124   -2.3212 H   0  0  0  0  0  0  0  0  0  0  0  0
    4.4657   -2.4945   -0.2106 H   0  0  0  0  0  0  0  0  0  0  0  0
    4.8956   -0.7324    1.4479 H   0  0  0  0  0  0  0  0  0  0  0  0
    2.4150    1.9841   -0.7901 H   0  0  0  0  0  0  0  0  0  0  0  0
    1.9944    0.2475   -2.4516 H   0  0  0  0  0  0  0  0  0  0  0  0
    5.8460    1.7346    3.1705 H   0  0  0  0  0  0  0  0  0  0  0  0
    9.9742    2.0853    0.7488 H   0  0  0  0  0  0  0  0  0  0  0  0
    8.8209    2.5292   -1.5511 H   0  0  0  0  0  0  0  0  0  0  0  0
  1  2  1  0
  2  3  1  0
  3  4  2  0
  4  5  1  0
  5  6  2  0
  5  7  1  0
  7  8  2  0
  8  9  1  0
  9 10  1  0
  9 11  2  0
 11 12  1  0
 11 13  1  0
 13 14  1  0
 13 15  2  0
  4 16  1  0
 16 17  2  0
 17 18  1  0
 17 19  1  0
 19 20  2  0
 20 21  1  0
 21 22  2  0
 20 23  1  0
 23 24  2  0
 23 25  2  0
 23 26  1  0
 26 27  1  0
 27 28  2  0
 28 29  1  0
 29 30  2  0
 30 31  1  0
 31 32  2  0
 30 33  1  0
 33 34  2  0
 33 35  2  0
 33 36  1  0
 36 37  1  0
 37 38  2  0
 38 39  1  0
 39 40  2  0
 40 41  1  0
 18  3  1  0
 32 27  1  0
 41 37  1  0
 15  7  1  0
 22 16  1  0
  1 42  1  0
  1 43  1  0
  1 44  1  0
  2 45  1  0
  2 46  1  0
  8 47  1  0
 12 48  1  0
 15 49  1  0
 19 50  1  0
 21 51  1  0
 22 52  1  0
 26 53  1  0
 28 54  1  0
 29 55  1  0
 31 56  1  0
 32 57  1  0
 36 58  1  0
 39 59  1  0
 40 60  1  0
M  END
$$$$
