
     RDKit          3D

  9  8  0  0  0  0  0  0  0  0999 V2000
   -0.9074    0.1949   -0.0401 C   0  0  0  0  0  0  0  0  0  0  0  0
    0.4780   -0.4200   -0.1971 C   0  0  0  0  0  0  0  0  0  0  0  0
    1.4676    0.5578   -0.0277 O   0  0  0  0  0  0  0  0  0  0  0  0
   -1.0271    0.6098    0.9831 H   0  0  0  0  0  0  0  0  0  0  0  0
   -1.0486    1.0082   -0.7831 H   0  0  0  0  0  0  0  0  0  0  0  0
   -1.6827   -0.5826   -0.2052 H   0  0  0  0  0  0  0  0  0  0  0  0
    0.6134   -1.2451    0.5386 H   0  0  0  0  0  0  0  0  0  0  0  0
    0.5710   -0.8495   -1.2168 H   0  0  0  0  0  0  0  0  0  0  0  0
    1.5359    0.7265    0.9484 H   0  0  0  0  0  0  0  0  0  0  0  0
  1  2  1  0
  2  3  1  0
  1  4  1  0
  1  5  1  0
  1  6  1  0
  2  7  1  0
  2  8  1  0
  3  9  1  0
M  END
$$$$
