
     RDKit          3D

 57 60  0  0  0  0  0  0  0  0999 V2000
    0.7358   -0.1882   -1.3298 C   0  0  2  0  0  0  0  0  0  0  0  0
    1.7160   -0.9663   -2.1972 C   0  0  0  0  0  0  0  0  0  0  0  0
    3.0896   -0.3876   -1.8175 C   0  0  0  0  0  0  0  0  0  0  0  0
    2.8667    0.5238   -0.5921 C   0  0  2  0  0  0  0  0  0  0  0  0
    3.9375    0.3728    0.3430 O   0  0  0  0  0  0  0  0  0  0  0  0
    4.2428    1.3183    1.3275 C   0  0  0  0  0  0  0  0  0  0  0  0
    3.6568    2.4346    1.3567 O   0  0  0  0  0  0  0  0  0  0  0  0
    5.3217    1.0207    2.3183 C   0  0  0  0  0  0  0  0  0  0  0  0
    6.6869    1.3873    1.7492 C   0  0  0  0  0  0  0  0  0  0  0  0
    1.4994    0.0797   -0.0268 C   0  0  2  0  0  0  0  0  0  0  0  0
    1.6919   -1.1868    0.8686 C   0  0  0  0  0  0  0  0  0  0  0  0
    0.7311    1.1697    0.7515 C   0  0  0  0  0  0  0  0  0  0  0  0
   -0.7291    0.7387    1.0290 C   0  0  0  0  0  0  0  0  0  0  0  0
   -1.4958    0.2750   -0.2526 C   0  0  1  0  0  0  0  0  0  0  0  0
   -0.6750   -0.7651   -1.0879 C   0  0  1  0  0  0  0  0  0  0  0  0
   -1.3891   -1.0374   -2.4225 C   0  0  0  0  0  0  0  0  0  0  0  0
   -2.7863   -1.6029   -2.1861 C   0  0  0  0  0  0  0  0  0  0  0  0
   -3.5970   -0.6958   -1.2901 C   0  0  0  0  0  0  0  0  0  0  0  0
   -4.9006   -0.5151   -1.5729 C   0  0  0  0  0  0  0  0  0  0  0  0
   -5.7948    0.2391   -0.6852 C   0  0  0  0  0  0  0  0  0  0  0  0
   -6.9998    0.4065   -1.0110 O   0  0  0  0  0  0  0  0  0  0  0  0
   -5.3050    0.7503    0.6304 C   0  0  0  0  0  0  0  0  0  0  0  0
   -3.7977    1.0146    0.5765 C   0  0  0  0  0  0  0  0  0  0  0  0
   -2.9771   -0.1970    0.0249 C   0  0  2  0  0  0  0  0  0  0  0  0
   -3.0274   -1.3584    1.0510 C   0  0  0  0  0  0  0  0  0  0  0  0
    0.5889    0.7876   -1.8573 H   0  0  0  0  0  0  0  0  0  0  0  0
    1.5048   -0.8143   -3.2782 H   0  0  0  0  0  0  0  0  0  0  0  0
    1.6691   -2.0526   -1.9647 H   0  0  0  0  0  0  0  0  0  0  0  0
    3.5131    0.2007   -2.6607 H   0  0  0  0  0  0  0  0  0  0  0  0
    3.7915   -1.2159   -1.5756 H   0  0  0  0  0  0  0  0  0  0  0  0
    2.8194    1.5789   -0.9493 H   0  0  0  0  0  0  0  0  0  0  0  0
    5.3035   -0.0622    2.5660 H   0  0  0  0  0  0  0  0  0  0  0  0
    5.1438    1.5935    3.2541 H   0  0  0  0  0  0  0  0  0  0  0  0
    7.4751    1.1561    2.4963 H   0  0  0  0  0  0  0  0  0  0  0  0
    6.7276    2.4723    1.5132 H   0  0  0  0  0  0  0  0  0  0  0  0
    6.8897    0.8029    0.8260 H   0  0  0  0  0  0  0  0  0  0  0  0
    0.7371   -1.6403    1.1934 H   0  0  0  0  0  0  0  0  0  0  0  0
    2.2459   -0.9187    1.7932 H   0  0  0  0  0  0  0  0  0  0  0  0
    2.2728   -1.9755    0.3476 H   0  0  0  0  0  0  0  0  0  0  0  0
    1.2360    1.3767    1.7193 H   0  0  0  0  0  0  0  0  0  0  0  0
    0.7209    2.1198    0.1727 H   0  0  0  0  0  0  0  0  0  0  0  0
   -0.7295   -0.0587    1.7972 H   0  0  0  0  0  0  0  0  0  0  0  0
   -1.2430    1.6138    1.4766 H   0  0  0  0  0  0  0  0  0  0  0  0
   -1.5728    1.1856   -0.8919 H   0  0  0  0  0  0  0  0  0  0  0  0
   -0.5902   -1.7308   -0.5528 H   0  0  0  0  0  0  0  0  0  0  0  0
   -1.4647   -0.1012   -3.0195 H   0  0  0  0  0  0  0  0  0  0  0  0
   -0.8116   -1.7775   -3.0173 H   0  0  0  0  0  0  0  0  0  0  0  0
   -3.2749   -1.7391   -3.1763 H   0  0  0  0  0  0  0  0  0  0  0  0
   -2.7088   -2.6048   -1.7115 H   0  0  0  0  0  0  0  0  0  0  0  0
   -5.3248   -0.9344   -2.4779 H   0  0  0  0  0  0  0  0  0  0  0  0
   -5.8308    1.6966    0.8830 H   0  0  0  0  0  0  0  0  0  0  0  0
   -5.5394    0.0084    1.4224 H   0  0  0  0  0  0  0  0  0  0  0  0
   -3.6305    1.9065   -0.0680 H   0  0  0  0  0  0  0  0  0  0  0  0
   -3.4665    1.2816    1.6023 H   0  0  0  0  0  0  0  0  0  0  0  0
   -2.3311   -2.1768    0.7819 H   0  0  0  0  0  0  0  0  0  0  0  0
   -2.7774   -1.0074    2.0736 H   0  0  0  0  0  0  0  0  0  0  0  0
   -4.0451   -1.8013    1.0942 H   0  0  0  0  0  0  0  0  0  0  0  0
  1  2  1  0
  2  3  1  0
  3  4  1  0
  4  5  1  0
  5  6  1  0
  6  7  2  0
  6  8  1  0
  8  9  1  0
  4 10  1  0
 10 11  1  1
 10 12  1  0
 12 13  1  0
 13 14  1  0
 14 15  1  0
 15 16  1  0
 16 17  1  0
 17 18  1  0
 18 19  2  0
 19 20  1  0
 20 21  2  0
 20 22  1  0
 22 23  1  0
 23 24  1  0
 24 25  1  1
 10  1  1  0
 24 14  1  0
 15  1  1  0
 24 18  1  0
  1 26  1  6
  2 27  1  0
  2 28  1  0
  3 29  1  0
  3 30  1  0
  4 31  1  6
  8 32  1  0
  8 33  1  0
  9 34  1  0
  9 35  1  0
  9 36  1  0
 11 37  1  0
 11 38  1  0
 11 39  1  0
 12 40  1  0
 12 41  1  0
 13 42  1  0
 13 43  1  0
 14 44  1  6
 15 45  1  1
 16 46  1  0
 16 47  1  0
 17 48  1  0
 17 49  1  0
 19 50  1  0
 22 51  1  0
 22 52  1  0
 23 53  1  0
 23 54  1  0
 25 55  1  0
 25 56  1  0
 25 57  1  0
M  END
$$$$
