
     RDKit          3D

 33 35  0  0  0  0  0  0  0  0999 V2000
    4.6473   -1.8150   -0.0632 N   0  0  0  0  0  0  0  0  0  0  0  0
    3.9112   -0.7180    0.4781 C   0  0  0  0  0  0  0  0  0  0  0  0
    4.5046    0.1051    1.3949 N   0  0  0  0  0  0  0  0  0  0  0  0
    3.8344    1.1548    1.9422 C   0  0  0  0  0  0  0  0  0  0  0  0
    4.3944    1.8946    2.7931 O   0  0  0  0  0  0  0  0  0  0  0  0
    2.5252    1.3818    1.5427 C   0  0  0  0  0  0  0  0  0  0  0  0
    1.9272    0.5587    0.6063 C   0  0  0  0  0  0  0  0  0  0  0  0
    2.6184   -0.4965    0.0859 N   0  0  0  0  0  0  0  0  0  0  0  0
    0.6320    0.8817    0.3000 N   0  0  0  0  0  0  0  0  0  0  0  0
   -0.2240    0.1241   -0.6332 C   0  0  2  0  0  0  0  0  0  0  0  0
   -1.2217    0.9606   -1.1844 O   0  0  0  0  0  0  0  0  0  0  0  0
   -2.4423    0.2600   -1.1252 C   0  0  2  0  0  0  0  0  0  0  0  0
   -3.5983    1.2605   -0.9824 C   0  0  0  0  0  0  0  0  0  0  0  0
   -4.8370    0.6046   -1.0107 O   0  0  0  0  0  0  0  0  0  0  0  0
   -2.3646   -0.7163    0.0436 C   0  0  1  0  0  0  0  0  0  0  0  0
   -3.1549   -1.8570   -0.1782 O   0  0  0  0  0  0  0  0  0  0  0  0
   -0.8906   -1.0572    0.0886 C   0  0  1  0  0  0  0  0  0  0  0  0
   -0.5998   -2.2786   -0.5522 O   0  0  0  0  0  0  0  0  0  0  0  0
    0.2217    1.9448    1.0507 C   0  0  0  0  0  0  0  0  0  0  0  0
   -0.9425    2.4236    1.0119 O   0  0  0  0  0  0  0  0  0  0  0  0
    1.4336    2.5472    2.0627 S   0  0  0  0  0  0  0  0  0  0  0  0
    5.6326   -1.9872    0.2364 H   0  0  0  0  0  0  0  0  0  0  0  0
    4.2126   -2.4566   -0.7628 H   0  0  0  0  0  0  0  0  0  0  0  0
    2.1783   -1.1494   -0.5979 H   0  0  0  0  0  0  0  0  0  0  0  0
    0.3919   -0.2333   -1.4861 H   0  0  0  0  0  0  0  0  0  0  0  0
   -2.5690   -0.3001   -2.0801 H   0  0  0  0  0  0  0  0  0  0  0  0
   -3.5471    2.0109   -1.8039 H   0  0  0  0  0  0  0  0  0  0  0  0
   -3.5065    1.8127   -0.0231 H   0  0  0  0  0  0  0  0  0  0  0  0
   -4.9974    0.3406   -1.9542 H   0  0  0  0  0  0  0  0  0  0  0  0
   -2.6448   -0.2150    1.0016 H   0  0  0  0  0  0  0  0  0  0  0  0
   -4.0666   -1.6409    0.1478 H   0  0  0  0  0  0  0  0  0  0  0  0
   -0.5552   -1.1323    1.1471 H   0  0  0  0  0  0  0  0  0  0  0  0
   -0.9030   -2.2130   -1.4961 H   0  0  0  0  0  0  0  0  0  0  0  0
  1  2  1  0
  2  3  2  0
  3  4  1  0
  4  5  2  0
  4  6  1  0
  6  7  2  0
  7  8  1  0
  7  9  1  0
  9 10  1  0
 10 11  1  0
 11 12  1  0
 12 13  1  0
 13 14  1  0
 12 15  1  0
 15 16  1  0
 15 17  1  0
 17 18  1  0
  9 19  1  0
 19 20  2  0
 19 21  1  0
  8  2  1  0
 17 10  1  0
 21  6  1  0
  1 22  1  0
  1 23  1  0
  8 24  1  0
 10 25  1  6
 12 26  1  6
 13 27  1  0
 13 28  1  0
 14 29  1  0
 15 30  1  1
 16 31  1  0
 17 32  1  1
 18 33  1  0
M  END
$$$$
