
     RDKit          3D

 61 65  0  0  0  0  0  0  0  0999 V2000
    6.9689    3.5431   -1.2993 C   0  0  0  0  0  0  0  0  0  0  0  0
    5.8824    3.0934   -0.4962 O   0  0  0  0  0  0  0  0  0  0  0  0
    5.6420    1.7512   -0.1612 C   0  0  0  0  0  0  0  0  0  0  0  0
    6.4814    0.7107   -0.6007 C   0  0  0  0  0  0  0  0  0  0  0  0
    6.2072   -0.6152   -0.2552 C   0  0  0  0  0  0  0  0  0  0  0  0
    5.0753   -0.9254    0.5316 C   0  0  0  0  0  0  0  0  0  0  0  0
    4.2578    0.1196    0.9954 C   0  0  0  0  0  0  0  0  0  0  0  0
    4.5289    1.4551    0.6402 C   0  0  0  0  0  0  0  0  0  0  0  0
    3.7136    2.5170    1.0641 O   0  0  0  0  0  0  0  0  0  0  0  0
    2.5340    2.3673    1.8482 C   0  0  0  0  0  0  0  0  0  0  0  0
    4.8181   -2.2808    0.8430 C   0  0  0  0  0  0  0  0  0  0  0  0
    3.6950   -2.6795    1.5806 O   0  0  0  0  0  0  0  0  0  0  0  0
    2.3657   -2.4720    1.1800 C   0  0  0  0  0  0  0  0  0  0  0  0
    1.3466   -2.6592    2.1195 C   0  0  0  0  0  0  0  0  0  0  0  0
    0.0108   -2.4456    1.7684 C   0  0  0  0  0  0  0  0  0  0  0  0
   -0.3262   -2.0319    0.4716 C   0  0  0  0  0  0  0  0  0  0  0  0
   -1.7085   -1.8310    0.1323 N   0  0  0  0  0  0  0  0  0  0  0  0
   -2.1699   -0.8536   -0.8129 C   0  0  0  0  0  0  0  0  0  0  0  0
   -1.4039    0.0624   -1.2172 O   0  0  0  0  0  0  0  0  0  0  0  0
   -3.6047   -0.8603   -1.2566 C   0  0  0  0  0  0  0  0  0  0  0  0
   -4.0744   -2.1571   -1.9051 C   0  0  0  0  0  0  0  0  0  0  0  0
   -3.8152   -0.9253   -2.7665 C   0  0  0  0  0  0  0  0  0  0  0  0
   -4.6188   -0.1226   -0.4073 C   0  0  0  0  0  0  0  0  0  0  0  0
   -4.2998    0.1917    0.7718 O   0  0  0  0  0  0  0  0  0  0  0  0
   -5.9402    0.1846   -0.8889 N   0  0  0  0  0  0  0  0  0  0  0  0
   -6.7708    1.2137   -0.3233 C   0  0  0  0  0  0  0  0  0  0  0  0
   -6.2162    2.3855    0.2257 C   0  0  0  0  0  0  0  0  0  0  0  0
   -7.0472    3.3816    0.7483 C   0  0  0  0  0  0  0  0  0  0  0  0
   -8.4354    3.2245    0.7172 C   0  0  0  0  0  0  0  0  0  0  0  0
   -9.2390    4.1923    1.2230 F   0  0  0  0  0  0  0  0  0  0  0  0
   -8.9951    2.0738    0.1557 C   0  0  0  0  0  0  0  0  0  0  0  0
   -8.1676    1.0760   -0.3686 C   0  0  0  0  0  0  0  0  0  0  0  0
    0.6932   -1.8803   -0.4846 C   0  0  0  0  0  0  0  0  0  0  0  0
    2.0286   -2.0965   -0.1336 C   0  0  0  0  0  0  0  0  0  0  0  0
    5.7158   -3.2642    0.4181 C   0  0  0  0  0  0  0  0  0  0  0  0
    6.8249   -2.9070   -0.3485 C   0  0  0  0  0  0  0  0  0  0  0  0
    7.0413   -1.6058   -0.6707 N   0  0  0  0  0  0  0  0  0  0  0  0
    6.9105    3.0877   -2.3105 H   0  0  0  0  0  0  0  0  0  0  0  0
    7.9343    3.2819   -0.8166 H   0  0  0  0  0  0  0  0  0  0  0  0
    6.9109    4.6459   -1.4028 H   0  0  0  0  0  0  0  0  0  0  0  0
    7.3508    0.9217   -1.2094 H   0  0  0  0  0  0  0  0  0  0  0  0
    3.4190   -0.0991    1.6385 H   0  0  0  0  0  0  0  0  0  0  0  0
    2.0810    3.3658    2.0154 H   0  0  0  0  0  0  0  0  0  0  0  0
    1.7988    1.7281    1.3145 H   0  0  0  0  0  0  0  0  0  0  0  0
    2.7845    1.9217    2.8340 H   0  0  0  0  0  0  0  0  0  0  0  0
    1.5923   -2.9626    3.1293 H   0  0  0  0  0  0  0  0  0  0  0  0
   -0.7631   -2.5893    2.5120 H   0  0  0  0  0  0  0  0  0  0  0  0
   -2.4300   -2.3701    0.6630 H   0  0  0  0  0  0  0  0  0  0  0  0
   -5.1495   -2.4079   -1.7903 H   0  0  0  0  0  0  0  0  0  0  0  0
   -3.3039   -2.9488   -2.0281 H   0  0  0  0  0  0  0  0  0  0  0  0
   -4.7336   -0.4570   -3.1740 H   0  0  0  0  0  0  0  0  0  0  0  0
   -2.8949   -1.0123   -3.3836 H   0  0  0  0  0  0  0  0  0  0  0  0
   -6.3684   -0.4318   -1.6141 H   0  0  0  0  0  0  0  0  0  0  0  0
   -5.1458    2.5426    0.2310 H   0  0  0  0  0  0  0  0  0  0  0  0
   -6.6135    4.2792    1.1700 H   0  0  0  0  0  0  0  0  0  0  0  0
  -10.0705    1.9546    0.1241 H   0  0  0  0  0  0  0  0  0  0  0  0
   -8.6141    0.1901   -0.8025 H   0  0  0  0  0  0  0  0  0  0  0  0
    0.4585   -1.6204   -1.5081 H   0  0  0  0  0  0  0  0  0  0  0  0
    2.7935   -1.9794   -0.8898 H   0  0  0  0  0  0  0  0  0  0  0  0
    5.5414   -4.3042    0.6632 H   0  0  0  0  0  0  0  0  0  0  0  0
    7.5133   -3.6673   -0.6925 H   0  0  0  0  0  0  0  0  0  0  0  0
  1  2  1  0
  2  3  1  0
  3  4  2  0
  4  5  1  0
  5  6  2  0
  6  7  1  0
  7  8  2  0
  8  9  1  0
  9 10  1  0
  6 11  1  0
 11 12  1  0
 12 13  1  0
 13 14  2  0
 14 15  1  0
 15 16  2  0
 16 17  1  0
 17 18  1  0
 18 19  2  0
 18 20  1  0
 20 21  1  0
 21 22  1  0
 20 23  1  0
 23 24  2  0
 23 25  1  0
 25 26  1  0
 26 27  2  0
 27 28  1  0
 28 29  2  0
 29 30  1  0
 29 31  1  0
 31 32  2  0
 16 33  1  0
 33 34  2  0
 11 35  2  0
 35 36  1  0
 36 37  2  0
  8  3  1  0
 34 13  1  0
 37  5  1  0
 22 20  1  0
 32 26  1  0
  1 38  1  0
  1 39  1  0
  1 40  1  0
  4 41  1  0
  7 42  1  0
 10 43  1  0
 10 44  1  0
 10 45  1  0
 14 46  1  0
 15 47  1  0
 17 48  1  0
 21 49  1  0
 21 50  1  0
 22 51  1  0
 22 52  1  0
 25 53  1  0
 27 54  1  0
 28 55  1  0
 31 56  1  0
 32 57  1  0
 33 58  1  0
 34 59  1  0
 35 60  1  0
 36 61  1  0
M  END
$$$$
