
     RDKit          3D

 31 33  0  0  0  0  0  0  0  0999 V2000
   -5.2457    1.2544   -0.4710 C   0  0  0  0  0  0  0  0  0  0  0  0
   -4.7242   -0.0702   -0.4403 O   0  0  0  0  0  0  0  0  0  0  0  0
   -3.3609   -0.3820   -0.3299 C   0  0  0  0  0  0  0  0  0  0  0  0
   -2.3649    0.6081   -0.2374 C   0  0  0  0  0  0  0  0  0  0  0  0
   -1.0193    0.2460   -0.1289 C   0  0  0  0  0  0  0  0  0  0  0  0
   -0.6438   -1.1102   -0.1108 C   0  0  0  0  0  0  0  0  0  0  0  0
   -1.6412   -2.0937   -0.2033 C   0  0  0  0  0  0  0  0  0  0  0  0
   -2.9864   -1.7300   -0.3117 C   0  0  0  0  0  0  0  0  0  0  0  0
    0.8083   -1.5180    0.0062 C   0  0  0  0  0  0  0  0  0  0  0  0
    1.4573   -0.9322    1.2317 C   0  0  0  0  0  0  0  0  0  0  0  0
    1.1050   -1.1739    2.4167 O   0  0  0  0  0  0  0  0  0  0  0  0
    2.5616   -0.0597    0.8556 C   0  0  0  0  0  0  0  0  0  0  0  0
    3.4202    0.6851    1.6648 C   0  0  0  0  0  0  0  0  0  0  0  0
    4.4157    1.4581    1.0428 C   0  0  0  0  0  0  0  0  0  0  0  0
    4.5326    1.4717   -0.3624 C   0  0  0  0  0  0  0  0  0  0  0  0
    3.6550    0.7124   -1.1551 C   0  0  0  0  0  0  0  0  0  0  0  0
    2.6756   -0.0465   -0.5135 C   0  0  0  0  0  0  0  0  0  0  0  0
    1.6500   -0.9098   -1.0837 C   0  0  0  0  0  0  0  0  0  0  0  0
    1.4989   -1.1281   -2.3151 O   0  0  0  0  0  0  0  0  0  0  0  0
   -4.8389    1.8048   -1.3455 H   0  0  0  0  0  0  0  0  0  0  0  0
   -4.9899    1.7873    0.4692 H   0  0  0  0  0  0  0  0  0  0  0  0
   -6.3501    1.2071   -0.5633 H   0  0  0  0  0  0  0  0  0  0  0  0
   -2.6193    1.6590   -0.2484 H   0  0  0  0  0  0  0  0  0  0  0  0
   -0.2687    1.0236   -0.0589 H   0  0  0  0  0  0  0  0  0  0  0  0
   -1.3795   -3.1445   -0.1916 H   0  0  0  0  0  0  0  0  0  0  0  0
   -3.7433   -2.5009   -0.3822 H   0  0  0  0  0  0  0  0  0  0  0  0
    0.9369   -2.6224    0.0062 H   0  0  0  0  0  0  0  0  0  0  0  0
    3.3235    0.6700    2.7426 H   0  0  0  0  0  0  0  0  0  0  0  0
    5.0955    2.0461    1.6456 H   0  0  0  0  0  0  0  0  0  0  0  0
    5.3018    2.0701   -0.8331 H   0  0  0  0  0  0  0  0  0  0  0  0
    3.7378    0.7182   -2.2342 H   0  0  0  0  0  0  0  0  0  0  0  0
  1  2  1  0
  2  3  1  0
  3  4  2  0
  4  5  1  0
  5  6  2  0
  6  7  1  0
  7  8  2  0
  6  9  1  0
  9 10  1  0
 10 11  2  0
 10 12  1  0
 12 13  2  0
 13 14  1  0
 14 15  2  0
 15 16  1  0
 16 17  2  0
 17 18  1  0
 18 19  2  0
  8  3  1  0
 18  9  1  0
 17 12  1  0
  1 20  1  0
  1 21  1  0
  1 22  1  0
  4 23  1  0
  5 24  1  0
  7 25  1  0
  8 26  1  0
  9 27  1  0
 13 28  1  0
 14 29  1  0
 15 30  1  0
 16 31  1  0
M  END
$$$$
