
     RDKit          3D

 35 36  0  0  0  0  0  0  0  0999 V2000
    1.2320    2.0055   -0.5635 C   0  0  1  0  0  0  0  0  0  0  0  0
    1.7512    3.1250   -1.1929 F   0  0  0  0  0  0  0  0  0  0  0  0
   -0.2735    1.9952   -0.6198 C   0  0  0  0  0  0  0  0  0  0  0  0
   -0.6178    0.5820   -1.0963 C   0  0  1  0  0  0  0  0  0  0  0  0
    0.5640   -0.1858   -1.1650 O   0  0  0  0  0  0  0  0  0  0  0  0
    1.6204    0.7328   -1.3042 C   0  0  2  0  0  0  0  0  0  0  0  0
    2.9275    0.1238   -0.7859 C   0  0  0  0  0  0  0  0  0  0  0  0
    2.7610   -0.3098    0.5440 O   0  0  0  0  0  0  0  0  0  0  0  0
    4.2461   -0.9425    1.0904 P   0  0  0  0  0  5  0  0  0  0  0  0
    5.4342    0.2638    1.0708 O   0  0  0  0  0  0  0  0  0  0  0  0
    4.7283   -2.2287    0.1008 O   0  0  0  0  0  0  0  0  0  0  0  0
    4.0739   -1.4454    2.5056 O   0  0  0  0  0  0  0  0  0  0  0  0
   -1.6009   -0.0627   -0.2004 N   0  0  0  0  0  0  0  0  0  0  0  0
   -2.8940   -0.1963   -0.6251 C   0  0  0  0  0  0  0  0  0  0  0  0
   -3.8600   -0.7951    0.1905 C   0  0  0  0  0  0  0  0  0  0  0  0
   -5.2838   -0.9250   -0.2753 C   0  0  0  0  0  0  0  0  0  0  0  0
   -3.4719   -1.2251    1.4643 C   0  0  0  0  0  0  0  0  0  0  0  0
   -4.3102   -1.7550    2.2435 O   0  0  0  0  0  0  0  0  0  0  0  0
   -2.1846   -1.0677    1.8676 N   0  0  0  0  0  0  0  0  0  0  0  0
   -1.2547   -0.4921    1.0579 C   0  0  0  0  0  0  0  0  0  0  0  0
   -0.0753   -0.3517    1.4830 O   0  0  0  0  0  0  0  0  0  0  0  0
    1.5680    1.9835    0.4970 H   0  0  0  0  0  0  0  0  0  0  0  0
   -0.6502    2.7472   -1.3482 H   0  0  0  0  0  0  0  0  0  0  0  0
   -0.7032    2.2228    0.3807 H   0  0  0  0  0  0  0  0  0  0  0  0
   -1.0242    0.6495   -2.1326 H   0  0  0  0  0  0  0  0  0  0  0  0
    1.7486    0.9617   -2.3876 H   0  0  0  0  0  0  0  0  0  0  0  0
    3.1871   -0.7352   -1.4453 H   0  0  0  0  0  0  0  0  0  0  0  0
    3.7267    0.8965   -0.8609 H   0  0  0  0  0  0  0  0  0  0  0  0
    5.0443    1.0104    1.5920 H   0  0  0  0  0  0  0  0  0  0  0  0
    5.6296   -2.4756    0.4287 H   0  0  0  0  0  0  0  0  0  0  0  0
   -3.1849    0.1629   -1.6059 H   0  0  0  0  0  0  0  0  0  0  0  0
   -5.9214   -0.2030    0.2767 H   0  0  0  0  0  0  0  0  0  0  0  0
   -5.3747   -0.7214   -1.3635 H   0  0  0  0  0  0  0  0  0  0  0  0
   -5.6532   -1.9553   -0.0873 H   0  0  0  0  0  0  0  0  0  0  0  0
   -1.9043   -1.3894    2.8226 H   0  0  0  0  0  0  0  0  0  0  0  0
  1  2  1  0
  1  3  1  0
  3  4  1  0
  4  5  1  0
  5  6  1  0
  6  7  1  0
  7  8  1  0
  8  9  1  0
  9 10  1  0
  9 11  1  0
  9 12  2  0
  4 13  1  0
 13 14  1  0
 14 15  2  0
 15 16  1  0
 15 17  1  0
 17 18  2  0
 17 19  1  0
 19 20  1  0
 20 21  2  0
  6  1  1  0
 20 13  1  0
  1 22  1  1
  3 23  1  0
  3 24  1  0
  4 25  1  6
  6 26  1  6
  7 27  1  0
  7 28  1  0
 10 29  1  0
 11 30  1  0
 14 31  1  0
 16 32  1  0
 16 33  1  0
 16 34  1  0
 19 35  1  0
M  END
$$$$
