
     RDKit          3D

 17 17  0  0  0  0  0  0  0  0999 V2000
    4.8463   -2.4150    0.5397 O   0  0  0  0  0  0  0  0  0  0  0  0
    3.0619   -1.5636    0.3644 Hg  0  0  0  0  0  2  0  0  0  0  0  0
    1.2072   -0.6772    0.1807 C   0  0  0  0  0  0  0  0  0  0  0  0
    0.9977    0.3071   -0.7861 C   0  0  0  0  0  0  0  0  0  0  0  0
   -0.2577    0.9100   -0.9136 C   0  0  0  0  0  0  0  0  0  0  0  0
   -1.3180    0.5303   -0.0701 C   0  0  0  0  0  0  0  0  0  0  0  0
   -1.0943   -0.4640    0.9015 C   0  0  0  0  0  0  0  0  0  0  0  0
    0.1637   -1.0626    1.0233 C   0  0  0  0  0  0  0  0  0  0  0  0
   -2.6458    1.1686   -0.2055 C   0  0  0  0  0  0  0  0  0  0  0  0
   -2.8572    2.1510   -1.1696 O   0  0  0  0  0  0  0  0  0  0  0  0
   -3.5973    0.8298    0.5493 O   0  0  0  0  0  0  0  0  0  0  0  0
    5.3988   -1.9767   -0.1554 H   0  0  0  0  0  0  0  0  0  0  0  0
    1.8108    0.6013   -1.4362 H   0  0  0  0  0  0  0  0  0  0  0  0
   -0.3968    1.6713   -1.6709 H   0  0  0  0  0  0  0  0  0  0  0  0
   -1.8893   -0.7786    1.5660 H   0  0  0  0  0  0  0  0  0  0  0  0
    0.3324   -1.8262    1.7708 H   0  0  0  0  0  0  0  0  0  0  0  0
   -3.7625    2.5944   -1.2708 H   0  0  0  0  0  0  0  0  0  0  0  0
  1  2  1  0
  2  3  1  0
  3  4  2  0
  4  5  1  0
  5  6  2  0
  6  7  1  0
  7  8  2  0
  6  9  1  0
  9 10  1  0
  9 11  2  0
  8  3  1  0
  1 12  1  0
  4 13  1  0
  5 14  1  0
  7 15  1  0
  8 16  1  0
 10 17  1  0
M  END
$$$$
