
     RDKit          3D

 55 60  0  0  0  0  0  0  0  0999 V2000
    6.7846    2.4972   -0.1310 C   0  0  0  0  0  0  0  0  0  0  0  0
    5.3908    1.8606   -0.2331 C   0  0  1  0  0  0  0  0  0  0  0  0
    4.4739    2.6782   -0.9151 O   0  0  0  0  0  0  0  0  0  0  0  0
    5.3859    0.4165   -0.7460 C   0  0  0  0  0  0  0  0  0  0  0  0
    4.8135   -0.0499    0.5966 C   0  0  1  0  0  0  0  0  0  0  0  0
    4.8263    1.3903    1.1095 C   0  0  0  0  0  0  0  0  0  0  0  0
    3.4199   -0.6315    0.5357 C   0  0  0  0  0  0  0  0  0  0  0  0
    2.5554   -0.4125   -0.4833 N   0  0  0  0  0  0  0  0  0  0  0  0
    1.4075   -1.0245   -0.1098 C   0  0  0  0  0  0  0  0  0  0  0  0
    1.5948   -1.6076    1.1385 C   0  0  0  0  0  0  0  0  0  0  0  0
    2.8452   -1.3273    1.5381 N   0  0  0  0  0  0  0  0  0  0  0  0
    3.3338   -1.6889    2.7531 C   0  0  0  0  0  0  0  0  0  0  0  0
    2.4907   -2.4100    3.6061 C   0  0  0  0  0  0  0  0  0  0  0  0
    1.2363   -2.7492    3.1868 N   0  0  0  0  0  0  0  0  0  0  0  0
    0.7572   -2.3819    1.9624 C   0  0  0  0  0  0  0  0  0  0  0  0
   -0.5156   -2.8703    1.5347 N   0  0  0  0  0  0  0  0  0  0  0  0
    0.1606   -0.8867   -0.8818 C   0  0  0  0  0  0  0  0  0  0  0  0
    0.1606   -1.1599   -2.2582 C   0  0  0  0  0  0  0  0  0  0  0  0
   -1.0050   -0.9947   -3.0128 C   0  0  0  0  0  0  0  0  0  0  0  0
   -2.1787   -0.5361   -2.3988 C   0  0  0  0  0  0  0  0  0  0  0  0
   -3.3592   -0.3568   -3.1277 C   0  0  0  0  0  0  0  0  0  0  0  0
   -4.5093    0.1099   -2.4877 C   0  0  0  0  0  0  0  0  0  0  0  0
   -4.4765    0.3935   -1.1095 C   0  0  0  0  0  0  0  0  0  0  0  0
   -3.3107    0.2192   -0.4246 N   0  0  0  0  0  0  0  0  0  0  0  0
   -2.1764   -0.2346   -1.0212 C   0  0  0  0  0  0  0  0  0  0  0  0
   -1.0071   -0.3996   -0.2716 C   0  0  0  0  0  0  0  0  0  0  0  0
   -5.6730    0.8969   -0.3872 C   0  0  0  0  0  0  0  0  0  0  0  0
   -6.9777    0.5580   -0.7996 C   0  0  0  0  0  0  0  0  0  0  0  0
   -8.0892    1.0367   -0.0989 C   0  0  0  0  0  0  0  0  0  0  0  0
   -7.9149    1.8515    1.0214 C   0  0  0  0  0  0  0  0  0  0  0  0
   -6.6281    2.1856    1.4475 C   0  0  0  0  0  0  0  0  0  0  0  0
   -5.5127    1.7093    0.7517 C   0  0  0  0  0  0  0  0  0  0  0  0
    7.2017    2.6593   -1.1472 H   0  0  0  0  0  0  0  0  0  0  0  0
    6.7123    3.4766    0.3872 H   0  0  0  0  0  0  0  0  0  0  0  0
    7.4799    1.8422    0.4371 H   0  0  0  0  0  0  0  0  0  0  0  0
    4.8010    2.7569   -1.8491 H   0  0  0  0  0  0  0  0  0  0  0  0
    6.4059    0.0090   -0.9232 H   0  0  0  0  0  0  0  0  0  0  0  0
    4.7152    0.2651   -1.6194 H   0  0  0  0  0  0  0  0  0  0  0  0
    5.5312   -0.7025    1.1402 H   0  0  0  0  0  0  0  0  0  0  0  0
    5.5291    1.5192    1.9623 H   0  0  0  0  0  0  0  0  0  0  0  0
    3.8139    1.8022    1.3226 H   0  0  0  0  0  0  0  0  0  0  0  0
    4.3360   -1.4239    3.0634 H   0  0  0  0  0  0  0  0  0  0  0  0
    2.8352   -2.7154    4.5849 H   0  0  0  0  0  0  0  0  0  0  0  0
   -0.7654   -2.9340    0.5250 H   0  0  0  0  0  0  0  0  0  0  0  0
   -1.1451   -3.3422    2.2209 H   0  0  0  0  0  0  0  0  0  0  0  0
    1.0622   -1.5103   -2.7458 H   0  0  0  0  0  0  0  0  0  0  0  0
   -0.9880   -1.2210   -4.0722 H   0  0  0  0  0  0  0  0  0  0  0  0
   -3.3908   -0.5689   -4.1898 H   0  0  0  0  0  0  0  0  0  0  0  0
   -5.4037    0.2696   -3.0746 H   0  0  0  0  0  0  0  0  0  0  0  0
   -1.0062   -0.1477    0.7826 H   0  0  0  0  0  0  0  0  0  0  0  0
   -7.1444   -0.0949   -1.6457 H   0  0  0  0  0  0  0  0  0  0  0  0
   -9.0873    0.7696   -0.4216 H   0  0  0  0  0  0  0  0  0  0  0  0
   -8.7770    2.2200    1.5623 H   0  0  0  0  0  0  0  0  0  0  0  0
   -6.4939    2.8147    2.3179 H   0  0  0  0  0  0  0  0  0  0  0  0
   -4.5247    1.9869    1.0977 H   0  0  0  0  0  0  0  0  0  0  0  0
  1  2  1  0
  2  3  1  6
  2  4  1  0
  4  5  1  0
  5  6  1  0
  5  7  1  0
  7  8  2  0
  8  9  1  0
  9 10  2  0
 10 11  1  0
 11 12  1  0
 12 13  2  0
 13 14  1  0
 14 15  2  0
 15 16  1  0
  9 17  1  0
 17 18  2  0
 18 19  1  0
 19 20  2  0
 20 21  1  0
 21 22  2  0
 22 23  1  0
 23 24  2  0
 24 25  1  0
 25 26  2  0
 23 27  1  0
 27 28  2  0
 28 29  1  0
 29 30  2  0
 30 31  1  0
 31 32  2  0
  6  2  1  0
 11  7  1  0
 26 17  1  0
 32 27  1  0
 15 10  1  0
 25 20  1  0
  1 33  1  0
  1 34  1  0
  1 35  1  0
  3 36  1  0
  4 37  1  0
  4 38  1  0
  5 39  1  1
  6 40  1  0
  6 41  1  0
 12 42  1  0
 13 43  1  0
 16 44  1  0
 16 45  1  0
 18 46  1  0
 19 47  1  0
 21 48  1  0
 22 49  1  0
 26 50  1  0
 28 51  1  0
 29 52  1  0
 30 53  1  0
 31 54  1  0
 32 55  1  0
M  END
$$$$
