
     RDKit          3D

 53 56  0  0  0  0  0  0  0  0999 V2000
    1.8821   -1.4936   -0.0599 C   0  0  0  0  0  0  0  0  0  0  0  0
    3.0890   -0.7536    0.3106 N   0  0  0  0  0  0  0  0  0  0  0  0
    4.3848   -1.3685    0.1788 C   0  0  0  0  0  0  0  0  0  0  0  0
    4.7074   -2.1160   -0.9684 C   0  0  0  0  0  0  0  0  0  0  0  0
    5.9643   -2.7192   -1.0906 C   0  0  0  0  0  0  0  0  0  0  0  0
    6.3587   -3.6411   -2.5299 Cl  0  0  0  0  0  0  0  0  0  0  0  0
    6.9066   -2.5857   -0.0665 C   0  0  0  0  0  0  0  0  0  0  0  0
    6.5930   -1.8520    1.0798 C   0  0  0  0  0  0  0  0  0  0  0  0
    5.3388   -1.2477    1.2048 C   0  0  0  0  0  0  0  0  0  0  0  0
    2.9340    0.8571    0.9521 S   0  0  0  0  0  6  0  0  0  0  0  0
    4.2408    1.5912    0.8315 O   0  0  0  0  0  0  0  0  0  0  0  0
    2.5521    0.7846    2.4040 O   0  0  0  0  0  0  0  0  0  0  0  0
    1.7147    1.7426    0.0410 C   0  0  0  0  0  0  0  0  0  0  0  0
    0.4039    1.8575    0.5412 C   0  0  0  0  0  0  0  0  0  0  0  0
   -0.5494    2.5221   -0.2352 C   0  0  0  0  0  0  0  0  0  0  0  0
   -1.8397    2.7228    0.0088 C   0  0  0  0  0  0  0  0  0  0  0  0
   -2.6694    2.1862    1.1400 C   0  0  0  0  0  0  0  0  0  0  0  0
   -3.1719    0.8092    0.8077 C   0  0  0  0  0  0  0  0  0  0  0  0
   -4.4404    0.4741    0.3482 C   0  0  0  0  0  0  0  0  0  0  0  0
   -5.6167    1.3898    0.1887 C   0  0  0  0  0  0  0  0  0  0  0  0
   -4.4398   -0.9023    0.1734 C   0  0  0  0  0  0  0  0  0  0  0  0
   -5.5793   -1.7424   -0.3189 C   0  0  0  0  0  0  0  0  0  0  0  0
   -3.1585   -1.3341    0.4777 C   0  0  0  0  0  0  0  0  0  0  0  0
   -2.6648   -2.7455    0.4232 C   0  0  0  0  0  0  0  0  0  0  0  0
   -2.4007   -0.2947    0.8743 N   0  0  0  0  0  0  0  0  0  0  0  0
   -2.2980    3.4362   -1.1746 C   0  0  0  0  0  0  0  0  0  0  0  0
   -3.4717    3.8352   -1.3911 O   0  0  0  0  0  0  0  0  0  0  0  0
   -1.2147    3.6308   -2.0771 N   0  0  0  0  0  0  0  0  0  0  0  0
   -0.2189    3.0705   -1.4671 C   0  0  0  0  0  0  0  0  0  0  0  0
    1.0758    2.9739   -1.9747 C   0  0  0  0  0  0  0  0  0  0  0  0
    2.0443    2.2982   -1.2149 C   0  0  0  0  0  0  0  0  0  0  0  0
    0.9745   -0.9973    0.3409 H   0  0  0  0  0  0  0  0  0  0  0  0
    1.9238   -2.5204    0.3610 H   0  0  0  0  0  0  0  0  0  0  0  0
    1.7946   -1.5471   -1.1646 H   0  0  0  0  0  0  0  0  0  0  0  0
    3.9919   -2.2187   -1.7735 H   0  0  0  0  0  0  0  0  0  0  0  0
    7.8797   -3.0514   -0.1568 H   0  0  0  0  0  0  0  0  0  0  0  0
    7.3210   -1.7552    1.8748 H   0  0  0  0  0  0  0  0  0  0  0  0
    5.1074   -0.7001    2.1091 H   0  0  0  0  0  0  0  0  0  0  0  0
    0.1434    1.4348    1.5018 H   0  0  0  0  0  0  0  0  0  0  0  0
   -3.5160    2.8756    1.3384 H   0  0  0  0  0  0  0  0  0  0  0  0
   -2.0650    2.1431    2.0701 H   0  0  0  0  0  0  0  0  0  0  0  0
   -6.3293    0.9811   -0.5573 H   0  0  0  0  0  0  0  0  0  0  0  0
   -5.2902    2.3869   -0.1661 H   0  0  0  0  0  0  0  0  0  0  0  0
   -6.1332    1.5001    1.1645 H   0  0  0  0  0  0  0  0  0  0  0  0
   -6.5285   -1.4072    0.1487 H   0  0  0  0  0  0  0  0  0  0  0  0
   -5.4240   -2.8095   -0.0572 H   0  0  0  0  0  0  0  0  0  0  0  0
   -5.6594   -1.6464   -1.4215 H   0  0  0  0  0  0  0  0  0  0  0  0
   -2.9029   -3.1898   -0.5658 H   0  0  0  0  0  0  0  0  0  0  0  0
   -1.5645   -2.7759    0.5702 H   0  0  0  0  0  0  0  0  0  0  0  0
   -3.1525   -3.3411    1.2227 H   0  0  0  0  0  0  0  0  0  0  0  0
   -1.4043   -0.3411    1.1801 H   0  0  0  0  0  0  0  0  0  0  0  0
    1.3281    3.3947   -2.9398 H   0  0  0  0  0  0  0  0  0  0  0  0
    3.0486    2.1991   -1.6066 H   0  0  0  0  0  0  0  0  0  0  0  0
  1  2  1  0
  2  3  1  0
  3  4  2  0
  4  5  1  0
  5  6  1  0
  5  7  2  0
  7  8  1  0
  8  9  2  0
  2 10  1  0
 10 11  2  0
 10 12  2  0
 10 13  1  0
 13 14  2  0
 14 15  1  0
 15 16  2  0
 16 17  1  0
 17 18  1  0
 18 19  2  0
 19 20  1  0
 19 21  1  0
 21 22  1  0
 21 23  2  0
 23 24  1  0
 23 25  1  0
 16 26  1  0
 26 27  2  0
 26 28  1  0
 28 29  2  0
 29 30  1  0
 30 31  2  0
  9  3  1  0
 31 13  1  0
 29 15  1  0
 25 18  1  0
  1 32  1  0
  1 33  1  0
  1 34  1  0
  4 35  1  0
  7 36  1  0
  8 37  1  0
  9 38  1  0
 14 39  1  0
 17 40  1  0
 17 41  1  0
 20 42  1  0
 20 43  1  0
 20 44  1  0
 22 45  1  0
 22 46  1  0
 22 47  1  0
 24 48  1  0
 24 49  1  0
 24 50  1  0
 25 51  1  0
 30 52  1  0
 31 53  1  0
M  END
$$$$
