
     RDKit          3D

 27 28  0  0  0  0  0  0  0  0999 V2000
   -1.9711   -2.4604    2.5129 O   0  0  0  0  0  1  0  0  0  0  0  0
   -2.3386   -1.3352    1.8151 N   0  0  0  0  0  4  0  0  0  0  0  0
   -3.4993   -0.8961    1.9502 O   0  0  0  0  0  0  0  0  0  0  0  0
   -1.5165   -0.8932    0.7637 N   0  0  0  0  0  0  0  0  0  0  0  0
   -1.5561    0.2946    0.2315 C   0  0  0  0  0  0  0  0  0  0  0  0
   -2.3454    1.3709    0.7012 N   0  0  0  0  0  0  0  0  0  0  0  0
   -2.0529    2.5367   -0.1234 C   0  0  0  0  0  0  0  0  0  0  0  0
   -1.0276    2.0657   -1.1833 C   0  0  0  0  0  0  0  0  0  0  0  0
   -0.7440    0.6729   -0.8618 N   0  0  0  0  0  0  0  0  0  0  0  0
    0.1776   -0.1901   -1.5982 C   0  0  0  0  0  0  0  0  0  0  0  0
    1.3835   -0.4994   -0.7549 C   0  0  0  0  0  0  0  0  0  0  0  0
    1.5274   -1.7488   -0.1344 C   0  0  0  0  0  0  0  0  0  0  0  0
    2.6400   -2.0054    0.6688 C   0  0  0  0  0  0  0  0  0  0  0  0
    3.5991   -1.0055    0.8487 C   0  0  0  0  0  0  0  0  0  0  0  0
    5.0044   -1.3003    1.8525 Cl  0  0  0  0  0  0  0  0  0  0  0  0
    3.4425    0.2033    0.2467 N   0  0  0  0  0  0  0  0  0  0  0  0
    2.3677    0.4769   -0.5401 C   0  0  0  0  0  0  0  0  0  0  0  0
   -2.9039    1.4060    1.5812 H   0  0  0  0  0  0  0  0  0  0  0  0
   -2.9850    2.9016   -0.6053 H   0  0  0  0  0  0  0  0  0  0  0  0
   -1.6163    3.3400    0.5081 H   0  0  0  0  0  0  0  0  0  0  0  0
   -0.0950    2.6671   -1.1244 H   0  0  0  0  0  0  0  0  0  0  0  0
   -1.4606    2.1363   -2.2043 H   0  0  0  0  0  0  0  0  0  0  0  0
   -0.3491   -1.1206   -1.9025 H   0  0  0  0  0  0  0  0  0  0  0  0
    0.5066    0.3194   -2.5300 H   0  0  0  0  0  0  0  0  0  0  0  0
    0.7800   -2.5208   -0.2693 H   0  0  0  0  0  0  0  0  0  0  0  0
    2.7535   -2.9697    1.1475 H   0  0  0  0  0  0  0  0  0  0  0  0
    2.2791    1.4543   -0.9965 H   0  0  0  0  0  0  0  0  0  0  0  0
  1  2  1  0
  2  3  2  0
  2  4  1  0
  4  5  2  0
  5  6  1  0
  6  7  1  0
  7  8  1  0
  8  9  1  0
  9 10  1  0
 10 11  1  0
 11 12  2  0
 12 13  1  0
 13 14  2  0
 14 15  1  0
 14 16  1  0
 16 17  2  0
  9  5  1  0
 17 11  1  0
  6 18  1  0
  7 19  1  0
  7 20  1  0
  8 21  1  0
  8 22  1  0
 10 23  1  0
 10 24  1  0
 12 25  1  0
 13 26  1  0
 17 27  1  0
M  CHG  2   1  -1   2   1
M  END
$$$$
