
     RDKit          3D

 74 77  0  0  0  0  0  0  0  0999 V2000
    9.3869    1.4147   -0.1144 C   0  0  0  0  0  0  0  0  0  0  0  0
    8.8346    0.0576   -0.6133 C   0  0  0  0  0  0  0  0  0  0  0  0
    9.1726   -1.0061    0.4541 C   0  0  0  0  0  0  0  0  0  0  0  0
    9.5617   -0.2890   -1.9307 C   0  0  0  0  0  0  0  0  0  0  0  0
    7.3111    0.0767   -0.8565 C   0  0  0  0  0  0  0  0  0  0  0  0
    6.6619   -1.0931   -1.3074 C   0  0  0  0  0  0  0  0  0  0  0  0
    5.2845   -1.1148   -1.5380 C   0  0  0  0  0  0  0  0  0  0  0  0
    4.5051    0.0324   -1.3222 C   0  0  0  0  0  0  0  0  0  0  0  0
    5.1399    1.2047   -0.8855 C   0  0  0  0  0  0  0  0  0  0  0  0
    6.5176    1.2291   -0.6529 C   0  0  0  0  0  0  0  0  0  0  0  0
    3.0401    0.0293   -1.5649 C   0  0  0  0  0  0  0  0  0  0  0  0
    2.4554    1.1220   -1.8039 O   0  0  0  0  0  0  0  0  0  0  0  0
    2.2436   -1.2551   -1.5890 C   0  0  0  0  0  0  0  0  0  0  0  0
    0.7847   -1.0730   -1.1385 C   0  0  0  0  0  0  0  0  0  0  0  0
    0.6863   -0.7258    0.3572 C   0  0  0  0  0  0  0  0  0  0  0  0
   -0.6929   -0.4569    0.8142 N   0  0  0  0  0  0  0  0  0  0  0  0
   -1.2428    0.8874    0.5366 C   0  0  0  0  0  0  0  0  0  0  0  0
   -2.1964    0.9172   -0.6672 C   0  0  0  0  0  0  0  0  0  0  0  0
   -3.2616   -0.1763   -0.5740 C   0  0  0  0  0  0  0  0  0  0  0  0
   -2.5767   -1.5405   -0.4435 C   0  0  0  0  0  0  0  0  0  0  0  0
   -1.6449   -1.5860    0.7763 C   0  0  0  0  0  0  0  0  0  0  0  0
   -4.0832    0.0707    0.5579 O   0  0  0  0  0  0  0  0  0  0  0  0
   -5.4398   -0.2649    0.3109 C   0  0  0  0  0  0  0  0  0  0  0  0
   -6.1444    0.8493   -0.4352 C   0  0  0  0  0  0  0  0  0  0  0  0
   -7.1216    0.5408   -1.3976 C   0  0  0  0  0  0  0  0  0  0  0  0
   -7.7962    1.5629   -2.0722 C   0  0  0  0  0  0  0  0  0  0  0  0
   -7.5089    2.8999   -1.7863 C   0  0  0  0  0  0  0  0  0  0  0  0
   -6.5494    3.2176   -0.8219 C   0  0  0  0  0  0  0  0  0  0  0  0
   -5.8727    2.1993   -0.1441 C   0  0  0  0  0  0  0  0  0  0  0  0
   -6.1480   -0.5062    1.6245 C   0  0  0  0  0  0  0  0  0  0  0  0
   -7.1645   -1.4752    1.7069 C   0  0  0  0  0  0  0  0  0  0  0  0
   -7.8510   -1.6803    2.9075 C   0  0  0  0  0  0  0  0  0  0  0  0
   -7.5388   -0.9141    4.0330 C   0  0  0  0  0  0  0  0  0  0  0  0
   -6.5429    0.0625    3.9589 C   0  0  0  0  0  0  0  0  0  0  0  0
   -5.8534    0.2719    2.7608 C   0  0  0  0  0  0  0  0  0  0  0  0
   10.4847    1.3565    0.0519 H   0  0  0  0  0  0  0  0  0  0  0  0
    8.9183    1.7019    0.8517 H   0  0  0  0  0  0  0  0  0  0  0  0
    9.2063    2.2157   -0.8636 H   0  0  0  0  0  0  0  0  0  0  0  0
    8.6224   -0.7957    1.3968 H   0  0  0  0  0  0  0  0  0  0  0  0
    8.9028   -2.0275    0.1135 H   0  0  0  0  0  0  0  0  0  0  0  0
   10.2615   -1.0081    0.6782 H   0  0  0  0  0  0  0  0  0  0  0  0
   10.6643   -0.2675   -1.7901 H   0  0  0  0  0  0  0  0  0  0  0  0
    9.2928   -1.3039   -2.2909 H   0  0  0  0  0  0  0  0  0  0  0  0
    9.2961    0.4442   -2.7228 H   0  0  0  0  0  0  0  0  0  0  0  0
    7.2201   -2.0012   -1.4898 H   0  0  0  0  0  0  0  0  0  0  0  0
    4.8389   -2.0300   -1.9049 H   0  0  0  0  0  0  0  0  0  0  0  0
    4.5668    2.1073   -0.7114 H   0  0  0  0  0  0  0  0  0  0  0  0
    6.9412    2.1620   -0.3125 H   0  0  0  0  0  0  0  0  0  0  0  0
    2.7190   -2.0151   -0.9320 H   0  0  0  0  0  0  0  0  0  0  0  0
    2.2519   -1.6492   -2.6276 H   0  0  0  0  0  0  0  0  0  0  0  0
    0.2588   -2.0324   -1.3225 H   0  0  0  0  0  0  0  0  0  0  0  0
    0.3050   -0.2912   -1.7582 H   0  0  0  0  0  0  0  0  0  0  0  0
    1.1019   -1.5696    0.9503 H   0  0  0  0  0  0  0  0  0  0  0  0
    1.3277    0.1522    0.5869 H   0  0  0  0  0  0  0  0  0  0  0  0
   -1.7962    1.2298    1.4375 H   0  0  0  0  0  0  0  0  0  0  0  0
   -0.4283    1.6254    0.3686 H   0  0  0  0  0  0  0  0  0  0  0  0
   -1.6280    0.8059   -1.6125 H   0  0  0  0  0  0  0  0  0  0  0  0
   -2.6960    1.9096   -0.7077 H   0  0  0  0  0  0  0  0  0  0  0  0
   -3.8318   -0.1527   -1.5342 H   0  0  0  0  0  0  0  0  0  0  0  0
   -3.3449   -2.3366   -0.3413 H   0  0  0  0  0  0  0  0  0  0  0  0
   -2.0083   -1.7556   -1.3715 H   0  0  0  0  0  0  0  0  0  0  0  0
   -2.2616   -1.5559    1.7004 H   0  0  0  0  0  0  0  0  0  0  0  0
   -1.1058   -2.5585    0.7880 H   0  0  0  0  0  0  0  0  0  0  0  0
   -5.5002   -1.2106   -0.2804 H   0  0  0  0  0  0  0  0  0  0  0  0
   -7.3617   -0.4903   -1.6251 H   0  0  0  0  0  0  0  0  0  0  0  0
   -8.5443    1.3181   -2.8150 H   0  0  0  0  0  0  0  0  0  0  0  0
   -8.0327    3.6897   -2.3091 H   0  0  0  0  0  0  0  0  0  0  0  0
   -6.3316    4.2537   -0.5972 H   0  0  0  0  0  0  0  0  0  0  0  0
   -5.1368    2.4644    0.6043 H   0  0  0  0  0  0  0  0  0  0  0  0
   -7.4275   -2.0703    0.8411 H   0  0  0  0  0  0  0  0  0  0  0  0
   -8.6285   -2.4311    2.9639 H   0  0  0  0  0  0  0  0  0  0  0  0
   -8.0724   -1.0734    4.9611 H   0  0  0  0  0  0  0  0  0  0  0  0
   -6.3073    0.6608    4.8295 H   0  0  0  0  0  0  0  0  0  0  0  0
   -5.0922    1.0406    2.7215 H   0  0  0  0  0  0  0  0  0  0  0  0
  1  2  1  0
  2  3  1  0
  2  4  1  0
  2  5  1  0
  5  6  2  0
  6  7  1  0
  7  8  2  0
  8  9  1  0
  9 10  2  0
  8 11  1  0
 11 12  2  0
 11 13  1  0
 13 14  1  0
 14 15  1  0
 15 16  1  0
 16 17  1  0
 17 18  1  0
 18 19  1  0
 19 20  1  0
 20 21  1  0
 19 22  1  0
 22 23  1  0
 23 24  1  0
 24 25  2  0
 25 26  1  0
 26 27  2  0
 27 28  1  0
 28 29  2  0
 23 30  1  0
 30 31  2  0
 31 32  1  0
 32 33  2  0
 33 34  1  0
 34 35  2  0
 10  5  1  0
 21 16  1  0
 29 24  1  0
 35 30  1  0
  1 36  1  0
  1 37  1  0
  1 38  1  0
  3 39  1  0
  3 40  1  0
  3 41  1  0
  4 42  1  0
  4 43  1  0
  4 44  1  0
  6 45  1  0
  7 46  1  0
  9 47  1  0
 10 48  1  0
 13 49  1  0
 13 50  1  0
 14 51  1  0
 14 52  1  0
 15 53  1  0
 15 54  1  0
 17 55  1  0
 17 56  1  0
 18 57  1  0
 18 58  1  0
 19 59  1  0
 20 60  1  0
 20 61  1  0
 21 62  1  0
 21 63  1  0
 23 64  1  0
 25 65  1  0
 26 66  1  0
 27 67  1  0
 28 68  1  0
 29 69  1  0
 31 70  1  0
 32 71  1  0
 33 72  1  0
 34 73  1  0
 35 74  1  0
M  END
$$$$
