
     RDKit          3D

 24 26  0  0  0  0  0  0  0  0999 V2000
   -3.3672   -0.6677   -0.2853 N   0  0  0  0  0  0  0  0  0  0  0  0
   -2.0991    0.0074   -0.2635 C   0  0  0  0  0  0  0  0  0  0  0  0
   -2.0899    1.3925   -0.4692 C   0  0  0  0  0  0  0  0  0  0  0  0
   -0.9047    2.1186   -0.4186 C   0  0  0  0  0  0  0  0  0  0  0  0
    0.3134    1.4778   -0.1626 C   0  0  0  0  0  0  0  0  0  0  0  0
    1.5691    2.2617   -0.1004 C   0  0  0  0  0  0  0  0  0  0  0  0
    1.5604    3.5108   -0.2711 O   0  0  0  0  0  0  0  0  0  0  0  0
    2.8055    1.5957    0.1569 N   0  0  0  0  0  0  0  0  0  0  0  0
    2.8310    0.1810    0.3476 C   0  0  0  0  0  0  0  0  0  0  0  0
    3.9293   -0.3957    0.5726 O   0  0  0  0  0  0  0  0  0  0  0  0
    1.5682   -0.5904    0.2777 C   0  0  0  0  0  0  0  0  0  0  0  0
    1.5821   -1.9817    0.4492 C   0  0  0  0  0  0  0  0  0  0  0  0
    0.4017   -2.7132    0.3700 C   0  0  0  0  0  0  0  0  0  0  0  0
   -0.8127   -2.0730    0.1301 C   0  0  0  0  0  0  0  0  0  0  0  0
   -0.8726   -0.6719   -0.0283 C   0  0  0  0  0  0  0  0  0  0  0  0
    0.3409    0.0758    0.0313 C   0  0  0  0  0  0  0  0  0  0  0  0
   -3.5108   -1.6273    0.0922 H   0  0  0  0  0  0  0  0  0  0  0  0
   -4.2278   -0.1569   -0.5849 H   0  0  0  0  0  0  0  0  0  0  0  0
   -3.0173    1.9197   -0.6563 H   0  0  0  0  0  0  0  0  0  0  0  0
   -0.9444    3.1895   -0.5748 H   0  0  0  0  0  0  0  0  0  0  0  0
    3.6936    2.1445    0.2041 H   0  0  0  0  0  0  0  0  0  0  0  0
    2.5096   -2.5084    0.6363 H   0  0  0  0  0  0  0  0  0  0  0  0
    0.4281   -3.7888    0.4908 H   0  0  0  0  0  0  0  0  0  0  0  0
   -1.6864   -2.7002    0.0561 H   0  0  0  0  0  0  0  0  0  0  0  0
  1  2  1  0
  2  3  2  0
  3  4  1  0
  4  5  2  0
  5  6  1  0
  6  7  2  0
  6  8  1  0
  8  9  1  0
  9 10  2  0
  9 11  1  0
 11 12  1  0
 12 13  2  0
 13 14  1  0
 14 15  2  0
 15 16  1  0
 15  2  1  0
 16  5  1  0
 16 11  2  0
  1 17  1  0
  1 18  1  0
  3 19  1  0
  4 20  1  0
  8 21  1  0
 12 22  1  0
 13 23  1  0
 14 24  1  0
M  END
$$$$
