
     RDKit          3D

 26 27  0  0  0  0  0  0  0  0999 V2000
   -1.9064    2.4435   -0.5322 O   0  0  0  0  0  0  0  0  0  0  0  0
   -2.7207    1.6344    0.2554 C   0  0  0  0  0  0  0  0  0  0  0  0
   -3.8333    2.0792    0.6483 O   0  0  0  0  0  0  0  0  0  0  0  0
   -2.3123    0.2502    0.5948 C   0  0  0  0  0  0  0  0  0  0  0  0
   -0.9574   -0.1634    0.5998 C   0  0  0  0  0  0  0  0  0  0  0  0
    0.1129    0.7811    0.4337 N   0  0  0  0  0  0  0  0  0  0  0  0
    1.3805    0.4469   -0.1582 C   0  0  0  0  0  0  0  0  0  0  0  0
    1.4925   -0.5703   -1.1247 C   0  0  0  0  0  0  0  0  0  0  0  0
    2.7324   -0.8626   -1.7013 C   0  0  0  0  0  0  0  0  0  0  0  0
    3.8682   -0.1372   -1.3290 C   0  0  0  0  0  0  0  0  0  0  0  0
    5.4222   -0.5046   -2.0550 Cl  0  0  0  0  0  0  0  0  0  0  0  0
    3.7618    0.8873   -0.3834 C   0  0  0  0  0  0  0  0  0  0  0  0
    2.5233    1.1823    0.1945 C   0  0  0  0  0  0  0  0  0  0  0  0
   -0.6555   -1.4672    0.8595 N   0  0  0  0  0  0  0  0  0  0  0  0
   -1.6095   -2.3991    1.1124 C   0  0  0  0  0  0  0  0  0  0  0  0
   -2.9521   -2.0320    1.1343 C   0  0  0  0  0  0  0  0  0  0  0  0
   -3.3021   -0.7071    0.8783 C   0  0  0  0  0  0  0  0  0  0  0  0
   -2.1881    3.3854   -0.7763 H   0  0  0  0  0  0  0  0  0  0  0  0
    0.0127    1.7195    0.8825 H   0  0  0  0  0  0  0  0  0  0  0  0
    0.6219   -1.1254   -1.4482 H   0  0  0  0  0  0  0  0  0  0  0  0
    2.8074   -1.6483   -2.4424 H   0  0  0  0  0  0  0  0  0  0  0  0
    4.6369    1.4566   -0.0968 H   0  0  0  0  0  0  0  0  0  0  0  0
    2.4549    1.9795    0.9241 H   0  0  0  0  0  0  0  0  0  0  0  0
   -1.3228   -3.4235    1.3083 H   0  0  0  0  0  0  0  0  0  0  0  0
   -3.7167   -2.7695    1.3418 H   0  0  0  0  0  0  0  0  0  0  0  0
   -4.3507   -0.4357    0.8797 H   0  0  0  0  0  0  0  0  0  0  0  0
  1  2  1  0
  2  3  2  0
  2  4  1  0
  4  5  2  0
  5  6  1  0
  6  7  1  0
  7  8  2  0
  8  9  1  0
  9 10  2  0
 10 11  1  0
 10 12  1  0
 12 13  2  0
  5 14  1  0
 14 15  2  0
 15 16  1  0
 16 17  2  0
 17  4  1  0
 13  7  1  0
  1 18  1  0
  6 19  1  0
  8 20  1  0
  9 21  1  0
 12 22  1  0
 13 23  1  0
 15 24  1  0
 16 25  1  0
 17 26  1  0
M  END
$$$$
