
     RDKit          3D

 40 42  0  0  0  0  0  0  0  0999 V2000
   -6.4005    1.4159    0.3621 C   0  0  0  0  0  0  0  0  0  0  0  0
   -5.4728    0.3390    0.4487 O   0  0  0  0  0  0  0  0  0  0  0  0
   -4.0792    0.4784    0.3482 C   0  0  0  0  0  0  0  0  0  0  0  0
   -3.4676    1.7290    0.1443 C   0  0  0  0  0  0  0  0  0  0  0  0
   -2.0773    1.8311    0.0516 C   0  0  0  0  0  0  0  0  0  0  0  0
   -1.5050    3.0437   -0.1637 N   0  0  0  0  0  0  0  0  0  0  0  0
   -0.1592    3.1739   -0.2643 C   0  0  0  0  0  0  0  0  0  0  0  0
    0.6410    2.0856   -0.1410 N   0  0  0  0  0  0  0  0  0  0  0  0
    0.1303    0.8420    0.0730 C   0  0  0  0  0  0  0  0  0  0  0  0
    1.0306   -0.2652    0.2517 N   0  0  0  0  0  0  0  0  0  0  0  0
    2.3070   -0.3598   -0.4044 C   0  0  0  0  0  0  0  0  0  0  0  0
    3.3407   -1.0949    0.1976 C   0  0  0  0  0  0  0  0  0  0  0  0
    4.5863   -1.2135   -0.4308 C   0  0  0  0  0  0  0  0  0  0  0  0
    5.9027   -2.1463    0.3533 S   0  0  0  0  0  0  0  0  0  0  0  0
    6.5612   -0.7016    1.2425 C   0  0  0  0  0  0  0  0  0  0  0  0
    4.7994   -0.6137   -1.6766 C   0  0  0  0  0  0  0  0  0  0  0  0
    3.7706    0.1029   -2.2924 C   0  0  0  0  0  0  0  0  0  0  0  0
    2.5278    0.2268   -1.6646 C   0  0  0  0  0  0  0  0  0  0  0  0
   -1.2698    0.6805    0.1733 C   0  0  0  0  0  0  0  0  0  0  0  0
   -1.8840   -0.5715    0.3594 C   0  0  0  0  0  0  0  0  0  0  0  0
   -3.2864   -0.6747    0.4519 C   0  0  0  0  0  0  0  0  0  0  0  0
   -3.9315   -1.9072    0.6443 O   0  0  0  0  0  0  0  0  0  0  0  0
   -3.2648   -3.1593    0.7692 C   0  0  0  0  0  0  0  0  0  0  0  0
   -6.2105    2.1499    1.1735 H   0  0  0  0  0  0  0  0  0  0  0  0
   -6.3200    1.9106   -0.6288 H   0  0  0  0  0  0  0  0  0  0  0  0
   -7.4294    1.0178    0.4774 H   0  0  0  0  0  0  0  0  0  0  0  0
   -4.0637    2.6274    0.0529 H   0  0  0  0  0  0  0  0  0  0  0  0
    0.2774    4.1480   -0.4358 H   0  0  0  0  0  0  0  0  0  0  0  0
    0.8095   -0.9687    0.9917 H   0  0  0  0  0  0  0  0  0  0  0  0
    3.1802   -1.5652    1.1599 H   0  0  0  0  0  0  0  0  0  0  0  0
    6.8814    0.0776    0.5195 H   0  0  0  0  0  0  0  0  0  0  0  0
    5.7874   -0.2870    1.9220 H   0  0  0  0  0  0  0  0  0  0  0  0
    7.4381   -1.0154    1.8449 H   0  0  0  0  0  0  0  0  0  0  0  0
    5.7588   -0.7057   -2.1695 H   0  0  0  0  0  0  0  0  0  0  0  0
    3.9341    0.5571   -3.2611 H   0  0  0  0  0  0  0  0  0  0  0  0
    1.7368    0.7627   -2.1724 H   0  0  0  0  0  0  0  0  0  0  0  0
   -1.2834   -1.4664    0.4163 H   0  0  0  0  0  0  0  0  0  0  0  0
   -2.5857   -3.1447    1.6478 H   0  0  0  0  0  0  0  0  0  0  0  0
   -2.6911   -3.3806   -0.1555 H   0  0  0  0  0  0  0  0  0  0  0  0
   -4.0196   -3.9584    0.9177 H   0  0  0  0  0  0  0  0  0  0  0  0
  1  2  1  0
  2  3  1  0
  3  4  2  0
  4  5  1  0
  5  6  2  0
  6  7  1  0
  7  8  2  0
  8  9  1  0
  9 10  1  0
 10 11  1  0
 11 12  2  0
 12 13  1  0
 13 14  1  0
 14 15  1  0
 13 16  2  0
 16 17  1  0
 17 18  2  0
  9 19  2  0
 19 20  1  0
 20 21  2  0
 21 22  1  0
 22 23  1  0
 21  3  1  0
 19  5  1  0
 18 11  1  0
  1 24  1  0
  1 25  1  0
  1 26  1  0
  4 27  1  0
  7 28  1  0
 10 29  1  0
 12 30  1  0
 15 31  1  0
 15 32  1  0
 15 33  1  0
 16 34  1  0
 17 35  1  0
 18 36  1  0
 20 37  1  0
 23 38  1  0
 23 39  1  0
 23 40  1  0
M  END
$$$$
