
     RDKit          3D

 29 31  0  0  0  0  0  0  0  0999 V2000
   -3.9445    2.1949   -1.5296 N   0  0  0  0  0  0  0  0  0  0  0  0
   -3.3179    1.0711   -0.9162 C   0  0  0  0  0  0  0  0  0  0  0  0
   -1.9505    1.0331   -0.7944 N   0  0  0  0  0  0  0  0  0  0  0  0
   -1.3144   -0.0293   -0.2112 C   0  0  0  0  0  0  0  0  0  0  0  0
    0.0763   -0.0729   -0.0848 O   0  0  0  0  0  0  0  0  0  0  0  0
    0.9225    0.9732   -0.5484 C   0  0  0  0  0  0  0  0  0  0  0  0
    2.3514    0.6167   -0.2615 C   0  0  0  0  0  0  0  0  0  0  0  0
    3.0966   -0.1257   -1.1924 C   0  0  0  0  0  0  0  0  0  0  0  0
    4.4165   -0.4899   -0.9073 C   0  0  0  0  0  0  0  0  0  0  0  0
    4.9958   -0.1265    0.3116 C   0  0  0  0  0  0  0  0  0  0  0  0
    4.2546    0.5974    1.2497 C   0  0  0  0  0  0  0  0  0  0  0  0
    2.9344    0.9635    0.9685 C   0  0  0  0  0  0  0  0  0  0  0  0
   -2.1026   -1.0707    0.2544 C   0  0  0  0  0  0  0  0  0  0  0  0
   -1.7358   -2.2146    0.8585 N   0  0  0  0  0  0  0  0  0  0  0  0
   -2.9323   -2.8281    1.0778 C   0  0  0  0  0  0  0  0  0  0  0  0
   -4.0000   -2.1148    0.6381 N   0  0  0  0  0  0  0  0  0  0  0  0
   -3.4458   -1.0134    0.1247 C   0  0  0  0  0  0  0  0  0  0  0  0
   -4.0813    0.0346   -0.4512 N   0  0  0  0  0  0  0  0  0  0  0  0
   -4.9834    2.2331   -1.6269 H   0  0  0  0  0  0  0  0  0  0  0  0
   -3.3700    2.9901   -1.8872 H   0  0  0  0  0  0  0  0  0  0  0  0
    0.7765    1.1171   -1.6415 H   0  0  0  0  0  0  0  0  0  0  0  0
    0.6561    1.9250   -0.0384 H   0  0  0  0  0  0  0  0  0  0  0  0
    2.6562   -0.4222   -2.1364 H   0  0  0  0  0  0  0  0  0  0  0  0
    4.9888   -1.0572   -1.6299 H   0  0  0  0  0  0  0  0  0  0  0  0
    6.0169   -0.4103    0.5313 H   0  0  0  0  0  0  0  0  0  0  0  0
    4.7016    0.8715    2.1965 H   0  0  0  0  0  0  0  0  0  0  0  0
    2.3676    1.5156    1.7081 H   0  0  0  0  0  0  0  0  0  0  0  0
   -3.0218   -3.7937    1.5577 H   0  0  0  0  0  0  0  0  0  0  0  0
   -5.0115   -2.3680    0.6898 H   0  0  0  0  0  0  0  0  0  0  0  0
  1  2  1  0
  2  3  2  0
  3  4  1  0
  4  5  1  0
  5  6  1  0
  6  7  1  0
  7  8  2  0
  8  9  1  0
  9 10  2  0
 10 11  1  0
 11 12  2  0
  4 13  2  0
 13 14  1  0
 14 15  2  0
 15 16  1  0
 16 17  1  0
 17 18  2  0
 18  2  1  0
 12  7  1  0
 17 13  1  0
  1 19  1  0
  1 20  1  0
  6 21  1  0
  6 22  1  0
  8 23  1  0
  9 24  1  0
 10 25  1  0
 11 26  1  0
 12 27  1  0
 15 28  1  0
 16 29  1  0
M  END
$$$$
