
     RDKit          3D

 41 44  0  0  0  0  0  0  0  0999 V2000
   -3.0353    3.7382   -0.3031 O   0  0  0  0  0  0  0  0  0  0  0  0
   -2.1398    2.9320   -0.9984 C   0  0  0  0  0  0  0  0  0  0  0  0
   -0.8998    3.0690   -0.8192 O   0  0  0  0  0  0  0  0  0  0  0  0
   -2.6486    1.8964   -1.9511 C   0  0  0  0  0  0  0  0  0  0  0  0
   -2.3897    0.5112   -1.4163 C   0  0  0  0  0  0  0  0  0  0  0  0
   -1.3134   -0.1598   -1.9025 N   0  0  0  0  0  0  0  0  0  0  0  0
   -0.9711   -1.3827   -1.4926 N   0  0  0  0  0  0  0  0  0  0  0  0
    0.2371   -1.9841   -2.0654 C   0  0  0  0  0  0  0  0  0  0  0  0
    1.4214   -1.6468   -1.2190 C   0  0  0  0  0  0  0  0  0  0  0  0
    2.0306   -0.4361   -1.2494 N   0  0  0  0  0  0  0  0  0  0  0  0
    3.0302   -0.3727   -0.3334 C   0  0  0  0  0  0  0  0  0  0  0  0
    3.2055   -1.5152    0.4282 C   0  0  0  0  0  0  0  0  0  0  0  0
    2.0796   -2.6685   -0.0385 S   0  0  0  0  0  0  0  0  0  0  0  0
    4.1737   -1.5987    1.4224 C   0  0  0  0  0  0  0  0  0  0  0  0
    4.9962   -0.4830    1.6419 C   0  0  0  0  0  0  0  0  0  0  0  0
    4.8513    0.6890    0.8580 C   0  0  0  0  0  0  0  0  0  0  0  0
    3.8383    0.7456   -0.1263 C   0  0  0  0  0  0  0  0  0  0  0  0
    5.7059    1.8990    1.1380 C   0  0  0  0  0  0  0  0  0  0  0  0
    5.8774    2.6531   -0.0101 F   0  0  0  0  0  0  0  0  0  0  0  0
    6.9554    1.5186    1.5961 F   0  0  0  0  0  0  0  0  0  0  0  0
    5.0907    2.6774    2.1004 F   0  0  0  0  0  0  0  0  0  0  0  0
   -1.6937   -2.0201   -0.5208 C   0  0  0  0  0  0  0  0  0  0  0  0
   -1.3496   -3.1693   -0.1244 O   0  0  0  0  0  0  0  0  0  0  0  0
   -2.8176   -1.3876    0.0384 C   0  0  0  0  0  0  0  0  0  0  0  0
   -3.1768   -0.0941   -0.4115 C   0  0  0  0  0  0  0  0  0  0  0  0
   -4.2985    0.5434    0.1610 C   0  0  0  0  0  0  0  0  0  0  0  0
   -5.0461   -0.0933    1.1535 C   0  0  0  0  0  0  0  0  0  0  0  0
   -4.6910   -1.3679    1.5913 C   0  0  0  0  0  0  0  0  0  0  0  0
   -3.5842   -2.0144    1.0408 C   0  0  0  0  0  0  0  0  0  0  0  0
   -2.7048    4.4390    0.3494 H   0  0  0  0  0  0  0  0  0  0  0  0
   -3.7290    2.0471   -2.1563 H   0  0  0  0  0  0  0  0  0  0  0  0
   -2.1262    2.0246   -2.9241 H   0  0  0  0  0  0  0  0  0  0  0  0
    0.1294   -3.0869   -2.1550 H   0  0  0  0  0  0  0  0  0  0  0  0
    0.4038   -1.5933   -3.0930 H   0  0  0  0  0  0  0  0  0  0  0  0
    4.2849   -2.4959    2.0173 H   0  0  0  0  0  0  0  0  0  0  0  0
    5.7421   -0.5311    2.4251 H   0  0  0  0  0  0  0  0  0  0  0  0
    3.6794    1.6405   -0.7153 H   0  0  0  0  0  0  0  0  0  0  0  0
   -4.6088    1.5319   -0.1442 H   0  0  0  0  0  0  0  0  0  0  0  0
   -5.9045    0.4047    1.5857 H   0  0  0  0  0  0  0  0  0  0  0  0
   -5.2745   -1.8560    2.3613 H   0  0  0  0  0  0  0  0  0  0  0  0
   -3.3300   -3.0034    1.4022 H   0  0  0  0  0  0  0  0  0  0  0  0
  1  2  1  0
  2  3  2  0
  2  4  1  0
  4  5  1  0
  5  6  2  0
  6  7  1  0
  7  8  1  0
  8  9  1  0
  9 10  2  0
 10 11  1  0
 11 12  2  0
 12 13  1  0
 12 14  1  0
 14 15  2  0
 15 16  1  0
 16 17  2  0
 16 18  1  0
 18 19  1  0
 18 20  1  0
 18 21  1  0
  7 22  1  0
 22 23  2  0
 22 24  1  0
 24 25  2  0
 25 26  1  0
 26 27  2  0
 27 28  1  0
 28 29  2  0
 25  5  1  0
 13  9  1  0
 29 24  1  0
 17 11  1  0
  1 30  1  0
  4 31  1  0
  4 32  1  0
  8 33  1  0
  8 34  1  0
 14 35  1  0
 15 36  1  0
 17 37  1  0
 26 38  1  0
 27 39  1  0
 28 40  1  0
 29 41  1  0
M  END
$$$$
