
     RDKit          3D

 59 62  0  0  0  0  0  0  0  0999 V2000
    0.2279   -0.6467   -1.1081 C   0  0  2  0  0  0  0  0  0  0  0  0
    1.0520   -1.7895   -1.6888 C   0  0  0  0  0  0  0  0  0  0  0  0
    2.5015   -1.2719   -1.6545 C   0  0  0  0  0  0  0  0  0  0  0  0
    2.4657    0.0906   -0.9126 C   0  0  2  0  0  0  0  0  0  0  0  0
    3.7095    0.4524   -0.1120 C   0  0  0  0  0  0  0  0  0  0  0  0
    3.7343    1.5282    0.4679 O   0  0  0  0  0  0  0  0  0  0  0  0
    4.9035   -0.4663   -0.0014 C   0  0  0  0  0  0  0  0  0  0  0  0
    6.0163    0.1922    0.6038 O   0  0  0  0  0  0  0  0  0  0  0  0
    6.7904    1.1528   -0.0570 C   0  0  0  0  0  0  0  0  0  0  0  0
    7.9097    1.8193    0.6676 C   0  0  0  0  0  0  0  0  0  0  0  0
    6.5260    1.4903   -1.2430 O   0  0  0  0  0  0  0  0  0  0  0  0
    1.1569    0.0291   -0.0893 C   0  0  2  0  0  0  0  0  0  0  0  0
    1.3843   -0.8109    1.2104 C   0  0  0  0  0  0  0  0  0  0  0  0
    0.5424    1.4029    0.2623 C   0  0  0  0  0  0  0  0  0  0  0  0
   -0.8935    1.2512    0.8188 C   0  0  0  0  0  0  0  0  0  0  0  0
   -1.8317    0.4054   -0.1028 C   0  0  1  0  0  0  0  0  0  0  0  0
   -1.1726   -0.9485   -0.5338 C   0  0  1  0  0  0  0  0  0  0  0  0
   -2.0551   -1.6424   -1.5850 C   0  0  0  0  0  0  0  0  0  0  0  0
   -3.4413   -1.9391   -1.0208 C   0  0  0  0  0  0  0  0  0  0  0  0
   -4.0902   -0.6854   -0.4820 C   0  0  0  0  0  0  0  0  0  0  0  0
   -5.4071   -0.5046   -0.6934 C   0  0  0  0  0  0  0  0  0  0  0  0
   -6.1477    0.6135   -0.0951 C   0  0  0  0  0  0  0  0  0  0  0  0
   -7.3729    0.7562   -0.3496 O   0  0  0  0  0  0  0  0  0  0  0  0
   -5.4771    1.5418    0.8644 C   0  0  0  0  0  0  0  0  0  0  0  0
   -3.9757    1.6210    0.5748 C   0  0  0  0  0  0  0  0  0  0  0  0
   -3.2914    0.2187    0.4704 C   0  0  2  0  0  0  0  0  0  0  0  0
   -3.2782   -0.4494    1.8696 C   0  0  0  0  0  0  0  0  0  0  0  0
    0.0685    0.0603   -1.9605 H   0  0  0  0  0  0  0  0  0  0  0  0
    0.7369   -2.0221   -2.7295 H   0  0  0  0  0  0  0  0  0  0  0  0
    0.9463   -2.7031   -1.0633 H   0  0  0  0  0  0  0  0  0  0  0  0
    3.1239   -2.0256   -1.1292 H   0  0  0  0  0  0  0  0  0  0  0  0
    2.8981   -1.1395   -2.6847 H   0  0  0  0  0  0  0  0  0  0  0  0
    2.3578    0.8809   -1.6914 H   0  0  0  0  0  0  0  0  0  0  0  0
    5.1984   -0.8414   -1.0052 H   0  0  0  0  0  0  0  0  0  0  0  0
    4.6243   -1.3339    0.6319 H   0  0  0  0  0  0  0  0  0  0  0  0
    7.5561    2.7846    1.0856 H   0  0  0  0  0  0  0  0  0  0  0  0
    8.7554    2.0075   -0.0270 H   0  0  0  0  0  0  0  0  0  0  0  0
    8.2641    1.1713    1.4964 H   0  0  0  0  0  0  0  0  0  0  0  0
    1.8520   -1.7926    0.9912 H   0  0  0  0  0  0  0  0  0  0  0  0
    2.0570   -0.2667    1.9062 H   0  0  0  0  0  0  0  0  0  0  0  0
    0.4512   -1.0097    1.7693 H   0  0  0  0  0  0  0  0  0  0  0  0
    1.1700    1.9230    1.0172 H   0  0  0  0  0  0  0  0  0  0  0  0
    0.5091    2.0512   -0.6413 H   0  0  0  0  0  0  0  0  0  0  0  0
   -1.3042    2.2755    0.9317 H   0  0  0  0  0  0  0  0  0  0  0  0
   -0.8423    0.8148    1.8350 H   0  0  0  0  0  0  0  0  0  0  0  0
   -1.9377    1.0033   -1.0383 H   0  0  0  0  0  0  0  0  0  0  0  0
   -1.0757   -1.6387    0.3266 H   0  0  0  0  0  0  0  0  0  0  0  0
   -2.1531   -1.0038   -2.4912 H   0  0  0  0  0  0  0  0  0  0  0  0
   -1.5927   -2.6050   -1.8929 H   0  0  0  0  0  0  0  0  0  0  0  0
   -4.0518   -2.3975   -1.8301 H   0  0  0  0  0  0  0  0  0  0  0  0
   -3.3595   -2.6850   -0.2010 H   0  0  0  0  0  0  0  0  0  0  0  0
   -5.9584   -1.1969   -1.3192 H   0  0  0  0  0  0  0  0  0  0  0  0
   -5.6528    1.1868    1.9016 H   0  0  0  0  0  0  0  0  0  0  0  0
   -5.9189    2.5578    0.7722 H   0  0  0  0  0  0  0  0  0  0  0  0
   -3.8411    2.1770   -0.3799 H   0  0  0  0  0  0  0  0  0  0  0  0
   -3.5100    2.2287    1.3794 H   0  0  0  0  0  0  0  0  0  0  0  0
   -2.6634   -1.3708    1.8808 H   0  0  0  0  0  0  0  0  0  0  0  0
   -4.3049   -0.7426    2.1752 H   0  0  0  0  0  0  0  0  0  0  0  0
   -2.8883    0.2416    2.6454 H   0  0  0  0  0  0  0  0  0  0  0  0
  1  2  1  0
  2  3  1  0
  3  4  1  0
  4  5  1  0
  5  6  2  0
  5  7  1  0
  7  8  1  0
  8  9  1  0
  9 10  1  0
  9 11  2  0
  4 12  1  0
 12 13  1  1
 12 14  1  0
 14 15  1  0
 15 16  1  0
 16 17  1  0
 17 18  1  0
 18 19  1  0
 19 20  1  0
 20 21  2  0
 21 22  1  0
 22 23  2  0
 22 24  1  0
 24 25  1  0
 25 26  1  0
 26 27  1  1
 12  1  1  0
 26 16  1  0
 17  1  1  0
 26 20  1  0
  1 28  1  6
  2 29  1  0
  2 30  1  0
  3 31  1  0
  3 32  1  0
  4 33  1  6
  7 34  1  0
  7 35  1  0
 10 36  1  0
 10 37  1  0
 10 38  1  0
 13 39  1  0
 13 40  1  0
 13 41  1  0
 14 42  1  0
 14 43  1  0
 15 44  1  0
 15 45  1  0
 16 46  1  6
 17 47  1  1
 18 48  1  0
 18 49  1  0
 19 50  1  0
 19 51  1  0
 21 52  1  0
 24 53  1  0
 24 54  1  0
 25 55  1  0
 25 56  1  0
 27 57  1  0
 27 58  1  0
 27 59  1  0
M  END
$$$$
