
     RDKit          3D

 65 66  0  0  0  0  0  0  0  0999 V2000
    3.7375    0.1309   -2.0606 C   0  0  2  0  0  0  0  0  0  0  0  0
    4.5938   -1.1348   -2.1361 C   0  0  0  0  0  0  0  0  0  0  0  0
    4.5071    1.2913   -1.4003 C   0  0  0  0  0  0  0  0  0  0  0  0
    4.8499    0.9936   -0.0091 N   0  0  0  0  0  0  0  0  0  0  0  0
    4.0536    1.1075    1.0847 C   0  0  0  0  0  0  0  0  0  0  0  0
    4.6613    0.7146    2.2385 N   0  0  0  0  0  0  0  0  0  0  0  0
    5.8856    0.3441    1.8173 C   0  0  0  0  0  0  0  0  0  0  0  0
    6.9572   -0.1592    2.5459 C   0  0  0  0  0  0  0  0  0  0  0  0
    6.8824   -0.3525    3.9584 N   0  0  0  0  0  0  0  0  0  0  0  0
    8.0983   -0.4699    1.8605 N   0  0  0  0  0  0  0  0  0  0  0  0
    8.1873   -0.2938    0.5025 C   0  0  0  0  0  0  0  0  0  0  0  0
    7.1265    0.2013   -0.2040 N   0  0  0  0  0  0  0  0  0  0  0  0
    5.9979    0.5097    0.4798 C   0  0  0  0  0  0  0  0  0  0  0  0
    2.5634   -0.1606   -1.3202 O   0  0  0  0  0  0  0  0  0  0  0  0
    1.4363    0.4547   -1.9052 C   0  0  0  0  0  0  0  0  0  0  0  0
   -0.0154    0.1480   -0.8565 P   0  0  0  0  0  5  0  0  0  0  0  0
   -0.2333   -1.3486   -0.7997 O   0  0  0  0  0  0  0  0  0  0  0  0
    0.2673    0.7200    0.7293 O   0  0  0  0  0  0  0  0  0  0  0  0
    0.1929    2.1291    0.7452 C   0  0  0  0  0  0  0  0  0  0  0  0
   -1.1650    2.5632    0.7612 O   0  0  0  0  0  0  0  0  0  0  0  0
   -2.0462    2.2701    1.8051 C   0  0  0  0  0  0  0  0  0  0  0  0
   -1.6422    1.6569    2.8320 O   0  0  0  0  0  0  0  0  0  0  0  0
   -3.3877    2.6434    1.6794 O   0  0  0  0  0  0  0  0  0  0  0  0
   -4.3787    2.3720    2.6704 C   0  0  0  0  0  0  0  0  0  0  0  0
   -4.2441    3.3555    3.8360 C   0  0  0  0  0  0  0  0  0  0  0  0
   -5.7606    2.4850    2.0302 C   0  0  0  0  0  0  0  0  0  0  0  0
   -1.3709    0.9208   -1.5566 O   0  0  0  0  0  0  0  0  0  0  0  0
   -2.5521    0.3353   -1.0587 C   0  0  0  0  0  0  0  0  0  0  0  0
   -2.8613   -0.8384   -1.8047 O   0  0  0  0  0  0  0  0  0  0  0  0
   -3.9906   -1.6181   -1.5461 C   0  0  0  0  0  0  0  0  0  0  0  0
   -4.7977   -1.2919   -0.6317 O   0  0  0  0  0  0  0  0  0  0  0  0
   -4.2153   -2.7608   -2.3204 O   0  0  0  0  0  0  0  0  0  0  0  0
   -5.3069   -3.6566   -2.1073 C   0  0  0  0  0  0  0  0  0  0  0  0
   -5.4855   -4.5238   -3.3518 C   0  0  0  0  0  0  0  0  0  0  0  0
   -5.0417   -4.5315   -0.8786 C   0  0  0  0  0  0  0  0  0  0  0  0
    3.5261    0.4242   -3.1184 H   0  0  0  0  0  0  0  0  0  0  0  0
    4.0508   -1.9167   -2.7082 H   0  0  0  0  0  0  0  0  0  0  0  0
    4.8037   -1.5308   -1.1201 H   0  0  0  0  0  0  0  0  0  0  0  0
    5.5542   -0.9248   -2.6536 H   0  0  0  0  0  0  0  0  0  0  0  0
    3.8843    2.2111   -1.4328 H   0  0  0  0  0  0  0  0  0  0  0  0
    5.4315    1.5071   -1.9796 H   0  0  0  0  0  0  0  0  0  0  0  0
    3.0362    1.4705    1.0471 H   0  0  0  0  0  0  0  0  0  0  0  0
    6.0135   -0.1180    4.4881 H   0  0  0  0  0  0  0  0  0  0  0  0
    7.7029   -0.7333    4.4797 H   0  0  0  0  0  0  0  0  0  0  0  0
    9.1027   -0.5493   -0.0129 H   0  0  0  0  0  0  0  0  0  0  0  0
    1.2307    0.0156   -2.9064 H   0  0  0  0  0  0  0  0  0  0  0  0
    1.5814    1.5521   -2.0058 H   0  0  0  0  0  0  0  0  0  0  0  0
    0.7277    2.5985   -0.1084 H   0  0  0  0  0  0  0  0  0  0  0  0
    0.6988    2.4964    1.6631 H   0  0  0  0  0  0  0  0  0  0  0  0
   -4.2587    1.3323    3.0492 H   0  0  0  0  0  0  0  0  0  0  0  0
   -5.0278    3.1581    4.5982 H   0  0  0  0  0  0  0  0  0  0  0  0
   -3.2524    3.2414    4.3211 H   0  0  0  0  0  0  0  0  0  0  0  0
   -4.3445    4.4010    3.4736 H   0  0  0  0  0  0  0  0  0  0  0  0
   -5.8441    1.7616    1.1912 H   0  0  0  0  0  0  0  0  0  0  0  0
   -6.5515    2.2524    2.7750 H   0  0  0  0  0  0  0  0  0  0  0  0
   -5.9229    3.5102    1.6337 H   0  0  0  0  0  0  0  0  0  0  0  0
   -2.4952    0.1008    0.0297 H   0  0  0  0  0  0  0  0  0  0  0  0
   -3.3765    1.0683   -1.1872 H   0  0  0  0  0  0  0  0  0  0  0  0
   -6.2447   -3.0777   -1.9520 H   0  0  0  0  0  0  0  0  0  0  0  0
   -6.3462   -5.2140   -3.2214 H   0  0  0  0  0  0  0  0  0  0  0  0
   -4.5673   -5.1187   -3.5462 H   0  0  0  0  0  0  0  0  0  0  0  0
   -5.6839   -3.8776   -4.2331 H   0  0  0  0  0  0  0  0  0  0  0  0
   -4.0974   -5.1026   -1.0070 H   0  0  0  0  0  0  0  0  0  0  0  0
   -5.8798   -5.2445   -0.7258 H   0  0  0  0  0  0  0  0  0  0  0  0
   -4.9543   -3.9006    0.0303 H   0  0  0  0  0  0  0  0  0  0  0  0
  1  2  1  0
  1  3  1  0
  3  4  1  0
  4  5  1  0
  5  6  2  0
  6  7  1  0
  7  8  2  0
  8  9  1  0
  8 10  1  0
 10 11  2  0
 11 12  1  0
 12 13  2  0
  1 14  1  0
 14 15  1  0
 15 16  1  0
 16 17  2  0
 16 18  1  0
 18 19  1  0
 19 20  1  0
 20 21  1  0
 21 22  2  0
 21 23  1  0
 23 24  1  0
 24 25  1  0
 24 26  1  0
 16 27  1  0
 27 28  1  0
 28 29  1  0
 29 30  1  0
 30 31  2  0
 30 32  1  0
 32 33  1  0
 33 34  1  0
 33 35  1  0
 13  4  1  0
 13  7  1  0
  1 36  1  6
  2 37  1  0
  2 38  1  0
  2 39  1  0
  3 40  1  0
  3 41  1  0
  5 42  1  0
  9 43  1  0
  9 44  1  0
 11 45  1  0
 15 46  1  0
 15 47  1  0
 19 48  1  0
 19 49  1  0
 24 50  1  0
 25 51  1  0
 25 52  1  0
 25 53  1  0
 26 54  1  0
 26 55  1  0
 26 56  1  0
 28 57  1  0
 28 58  1  0
 33 59  1  0
 34 60  1  0
 34 61  1  0
 34 62  1  0
 35 63  1  0
 35 64  1  0
 35 65  1  0
M  END
$$$$
