
     RDKit          3D

 43 46  0  0  0  0  0  0  0  0999 V2000
    7.3892   -0.5958    0.2355 C   0  0  0  0  0  0  0  0  0  0  0  0
    6.6832    0.5799   -0.9337 S   0  0  0  0  0  4  0  0  0  0  0  0
    6.9224   -0.0414   -2.3035 O   0  0  0  0  0  0  0  0  0  0  0  0
    4.9222    0.4681   -0.6999 C   0  0  0  0  0  0  0  0  0  0  0  0
    4.2462   -0.7375   -0.9215 C   0  0  0  0  0  0  0  0  0  0  0  0
    2.8631   -0.8150   -0.7323 C   0  0  0  0  0  0  0  0  0  0  0  0
    2.1341    0.3170   -0.3203 C   0  0  0  0  0  0  0  0  0  0  0  0
    2.8249    1.5226   -0.0966 C   0  0  0  0  0  0  0  0  0  0  0  0
    4.2076    1.5961   -0.2875 C   0  0  0  0  0  0  0  0  0  0  0  0
    0.6659    0.2576   -0.1112 C   0  0  0  0  0  0  0  0  0  0  0  0
   -0.0355    1.2656    0.4534 N   0  0  0  0  0  0  0  0  0  0  0  0
   -1.3139    0.8369    0.4521 C   0  0  0  0  0  0  0  0  0  0  0  0
   -1.3689   -0.4234   -0.1282 C   0  0  0  0  0  0  0  0  0  0  0  0
   -0.1189   -0.7819   -0.4691 N   0  0  0  0  0  0  0  0  0  0  0  0
   -2.5638   -1.2330   -0.4505 C   0  0  0  0  0  0  0  0  0  0  0  0
   -2.5279   -2.6278   -0.2892 C   0  0  0  0  0  0  0  0  0  0  0  0
   -3.6479   -3.4046   -0.6052 C   0  0  0  0  0  0  0  0  0  0  0  0
   -3.5885   -5.4962   -0.3418 I   0  0  0  0  0  0  0  0  0  0  0  0
   -4.8065   -2.7944   -1.0952 C   0  0  0  0  0  0  0  0  0  0  0  0
   -4.8442   -1.4096   -1.2755 C   0  0  0  0  0  0  0  0  0  0  0  0
   -3.7268   -0.6308   -0.9613 C   0  0  0  0  0  0  0  0  0  0  0  0
   -2.4176    1.6148    1.0543 C   0  0  0  0  0  0  0  0  0  0  0  0
   -3.4407    0.9838    1.7804 C   0  0  0  0  0  0  0  0  0  0  0  0
   -4.4570    1.7537    2.3508 C   0  0  0  0  0  0  0  0  0  0  0  0
   -4.4456    3.1062    2.2166 N   0  0  0  0  0  0  0  0  0  0  0  0
   -3.4580    3.7457    1.5360 C   0  0  0  0  0  0  0  0  0  0  0  0
   -2.4227    3.0135    0.9498 C   0  0  0  0  0  0  0  0  0  0  0  0
    8.4940   -0.5964    0.1351 H   0  0  0  0  0  0  0  0  0  0  0  0
    7.0029   -1.6155    0.0310 H   0  0  0  0  0  0  0  0  0  0  0  0
    7.1156   -0.2985    1.2688 H   0  0  0  0  0  0  0  0  0  0  0  0
    4.7896   -1.6180   -1.2395 H   0  0  0  0  0  0  0  0  0  0  0  0
    2.3780   -1.7659   -0.8992 H   0  0  0  0  0  0  0  0  0  0  0  0
    2.2962    2.4124    0.2215 H   0  0  0  0  0  0  0  0  0  0  0  0
    4.7220    2.5326   -0.1125 H   0  0  0  0  0  0  0  0  0  0  0  0
    0.1584   -1.6582   -0.9631 H   0  0  0  0  0  0  0  0  0  0  0  0
   -1.6377   -3.1106    0.0947 H   0  0  0  0  0  0  0  0  0  0  0  0
   -5.6743   -3.3926   -1.3411 H   0  0  0  0  0  0  0  0  0  0  0  0
   -5.7381   -0.9397   -1.6647 H   0  0  0  0  0  0  0  0  0  0  0  0
   -3.7667    0.4380   -1.1290 H   0  0  0  0  0  0  0  0  0  0  0  0
   -3.4467   -0.0895    1.9199 H   0  0  0  0  0  0  0  0  0  0  0  0
   -5.2518    1.2755    2.9074 H   0  0  0  0  0  0  0  0  0  0  0  0
   -3.4753    4.8240    1.4508 H   0  0  0  0  0  0  0  0  0  0  0  0
   -1.6405    3.5325    0.4093 H   0  0  0  0  0  0  0  0  0  0  0  0
  2  1  1  1
  2  3  2  0
  2  4  1  0
  4  5  2  0
  5  6  1  0
  6  7  2  0
  7  8  1  0
  8  9  2  0
  7 10  1  0
 10 11  2  0
 11 12  1  0
 12 13  2  0
 13 14  1  0
 13 15  1  0
 15 16  2  0
 16 17  1  0
 17 18  1  0
 17 19  2  0
 19 20  1  0
 20 21  2  0
 12 22  1  0
 22 23  2  0
 23 24  1  0
 24 25  2  0
 25 26  1  0
 26 27  2  0
  9  4  1  0
 14 10  1  0
 21 15  1  0
 27 22  1  0
  1 28  1  0
  1 29  1  0
  1 30  1  0
  5 31  1  0
  6 32  1  0
  8 33  1  0
  9 34  1  0
 14 35  1  0
 16 36  1  0
 19 37  1  0
 20 38  1  0
 21 39  1  0
 23 40  1  0
 24 41  1  0
 26 42  1  0
 27 43  1  0
M  END
$$$$
