
     RDKit          3D

 78 85  0  0  0  0  0  0  0  0999 V2000
   -4.2436   -2.8316    2.2497 C   0  0  2  0  0  0  0  0  0  0  0  0
   -4.1792   -4.2599    2.7965 C   0  0  0  0  0  0  0  0  0  0  0  0
   -5.6303   -4.7437    2.8241 C   0  0  0  0  0  0  0  0  0  0  0  0
   -6.3849   -3.8751    1.8211 C   0  0  0  0  0  0  0  0  0  0  0  0
   -5.5229   -2.7351    1.5727 N   0  0  0  0  0  0  0  0  0  0  0  0
   -5.8273   -1.6842    0.6419 C   0  0  0  0  0  0  0  0  0  0  0  0
   -7.0156   -1.5107    0.2575 O   0  0  0  0  0  0  0  0  0  0  0  0
   -4.7274   -0.7909    0.1091 C   0  0  2  0  0  0  0  0  0  0  0  0
   -4.6594   -0.8926   -1.4259 C   0  0  0  0  0  0  0  0  0  0  0  0
   -3.5872   -0.0037   -2.0024 C   0  0  0  0  0  0  0  0  0  0  0  0
   -3.7815    1.3862   -2.0697 C   0  0  0  0  0  0  0  0  0  0  0  0
   -2.7749    2.2145   -2.5758 C   0  0  0  0  0  0  0  0  0  0  0  0
   -1.5722    1.6617   -3.0238 C   0  0  0  0  0  0  0  0  0  0  0  0
   -1.3736    0.2800   -2.9648 C   0  0  0  0  0  0  0  0  0  0  0  0
   -2.3714   -0.5507   -2.4472 C   0  0  0  0  0  0  0  0  0  0  0  0
   -3.4322   -1.1625    0.7003 N   0  0  0  0  0  0  0  0  0  0  0  0
   -2.4218   -0.2869    1.1047 C   0  0  0  0  0  0  0  0  0  0  0  0
   -2.4345    0.9517    0.8725 O   0  0  0  0  0  0  0  0  0  0  0  0
   -1.3973   -1.0126    1.8845 C   0  0  2  0  0  0  0  0  0  0  0  0
   -1.2468   -0.4316    3.2963 C   0  0  0  0  0  0  0  0  0  0  0  0
   -0.1101   -1.0310    1.1742 N   0  0  0  0  0  0  0  0  0  0  0  0
    0.7013    0.1268    0.9074 C   0  0  0  0  0  0  0  0  0  0  0  0
    0.2798    1.2832    1.1829 O   0  0  0  0  0  0  0  0  0  0  0  0
    2.0356   -0.0357    0.2272 C   0  0  1  0  0  0  0  0  0  0  0  0
    1.8657    0.1129   -1.2979 C   0  0  0  0  0  0  0  0  0  0  0  0
    3.1625    0.2790   -1.9821 N   0  0  0  0  0  0  0  0  0  0  0  0
    4.0043   -0.9291   -1.8514 C   0  0  0  0  0  0  0  0  0  0  0  0
    3.8195    1.5272   -1.5171 C   0  0  2  0  0  0  0  0  0  0  0  0
    5.1757    1.7947   -2.2539 C   0  0  0  0  0  0  0  0  0  0  0  0
    5.9050    2.9228   -1.5959 C   0  0  0  0  0  0  0  0  0  0  0  0
    6.9893    3.6854   -2.0190 C   0  0  0  0  0  0  0  0  0  0  0  0
    7.4633    4.4289   -0.9836 N   0  0  0  0  0  0  0  0  0  0  0  0
    6.7006    4.1087    0.0803 C   0  0  0  0  0  0  0  0  0  0  0  0
    6.8165    4.5377    1.4008 C   0  0  0  0  0  0  0  0  0  0  0  0
    5.9209    3.9887    2.3452 C   0  0  0  0  0  0  0  0  0  0  0  0
    4.9523    3.0268    1.9549 C   0  0  0  0  0  0  0  0  0  0  0  0
    4.8733    2.6048    0.6033 C   0  0  0  0  0  0  0  0  0  0  0  0
    5.7620    3.1945   -0.2747 C   0  0  0  0  0  0  0  0  0  0  0  0
    3.9145    1.6139    0.0217 C   0  0  0  0  0  0  0  0  0  0  0  0
    3.0472    0.9325    0.7921 C   0  0  0  0  0  0  0  0  0  0  0  0
   -1.8793   -2.3477    1.9975 O   0  0  0  0  0  0  0  0  0  0  0  0
   -3.1106   -2.4556    1.2817 C   0  0  1  0  0  0  0  0  0  0  0  0
   -2.9918   -3.4146    0.2615 O   0  0  0  0  0  0  0  0  0  0  0  0
   -4.2462   -2.1140    3.1011 H   0  0  0  0  0  0  0  0  0  0  0  0
   -3.5876   -4.9278    2.1340 H   0  0  0  0  0  0  0  0  0  0  0  0
   -3.7305   -4.2793    3.8134 H   0  0  0  0  0  0  0  0  0  0  0  0
   -6.0524   -4.5887    3.8415 H   0  0  0  0  0  0  0  0  0  0  0  0
   -5.7023   -5.8213    2.5606 H   0  0  0  0  0  0  0  0  0  0  0  0
   -6.5495   -4.4312    0.8727 H   0  0  0  0  0  0  0  0  0  0  0  0
   -7.3585   -3.5406    2.2401 H   0  0  0  0  0  0  0  0  0  0  0  0
   -4.9795    0.2527    0.3999 H   0  0  0  0  0  0  0  0  0  0  0  0
   -4.4824   -1.9507   -1.7211 H   0  0  0  0  0  0  0  0  0  0  0  0
   -5.6378   -0.5945   -1.8627 H   0  0  0  0  0  0  0  0  0  0  0  0
   -4.7083    1.8266   -1.7233 H   0  0  0  0  0  0  0  0  0  0  0  0
   -2.9278    3.2850   -2.6215 H   0  0  0  0  0  0  0  0  0  0  0  0
   -0.7949    2.3033   -3.4182 H   0  0  0  0  0  0  0  0  0  0  0  0
   -0.4463   -0.1476   -3.3217 H   0  0  0  0  0  0  0  0  0  0  0  0
   -2.1969   -1.6180   -2.3966 H   0  0  0  0  0  0  0  0  0  0  0  0
   -2.2005   -0.5390    3.8568 H   0  0  0  0  0  0  0  0  0  0  0  0
   -0.4535   -0.9801    3.8472 H   0  0  0  0  0  0  0  0  0  0  0  0
   -0.9823    0.6454    3.2695 H   0  0  0  0  0  0  0  0  0  0  0  0
    0.2468   -1.9567    0.8443 H   0  0  0  0  0  0  0  0  0  0  0  0
    2.4154   -1.0579    0.4427 H   0  0  0  0  0  0  0  0  0  0  0  0
    1.3322   -0.7759   -1.7014 H   0  0  0  0  0  0  0  0  0  0  0  0
    1.2216    0.9926   -1.5248 H   0  0  0  0  0  0  0  0  0  0  0  0
    4.7178   -0.9802   -2.6993 H   0  0  0  0  0  0  0  0  0  0  0  0
    4.5686   -0.9372   -0.8937 H   0  0  0  0  0  0  0  0  0  0  0  0
    3.3919   -1.8550   -1.9114 H   0  0  0  0  0  0  0  0  0  0  0  0
    3.1620    2.3752   -1.8166 H   0  0  0  0  0  0  0  0  0  0  0  0
    4.9881    2.0366   -3.3218 H   0  0  0  0  0  0  0  0  0  0  0  0
    5.8450    0.9133   -2.1997 H   0  0  0  0  0  0  0  0  0  0  0  0
    7.4317    3.6660   -3.0063 H   0  0  0  0  0  0  0  0  0  0  0  0
    8.2819    5.0768   -1.0010 H   0  0  0  0  0  0  0  0  0  0  0  0
    7.5693    5.2577    1.6941 H   0  0  0  0  0  0  0  0  0  0  0  0
    5.9775    4.3021    3.3795 H   0  0  0  0  0  0  0  0  0  0  0  0
    4.2828    2.6392    2.7082 H   0  0  0  0  0  0  0  0  0  0  0  0
    3.1072    0.9922    1.8692 H   0  0  0  0  0  0  0  0  0  0  0  0
   -2.2160   -3.1456   -0.2963 H   0  0  0  0  0  0  0  0  0  0  0  0
  1  2  1  0
  2  3  1  0
  3  4  1  0
  4  5  1  0
  5  6  1  0
  6  7  2  0
  6  8  1  0
  8  9  1  0
  9 10  1  0
 10 11  2  0
 11 12  1  0
 12 13  2  0
 13 14  1  0
 14 15  2  0
  8 16  1  0
 16 17  1  0
 17 18  2  0
 17 19  1  0
 19 20  1  0
 19 21  1  6
 21 22  1  0
 22 23  2  0
 22 24  1  0
 24 25  1  0
 25 26  1  0
 26 27  1  0
 26 28  1  0
 28 29  1  0
 29 30  1  0
 30 31  2  0
 31 32  1  0
 32 33  1  0
 33 34  2  0
 34 35  1  0
 35 36  2  0
 36 37  1  0
 37 38  2  0
 37 39  1  0
 39 40  2  0
 19 41  1  0
 41 42  1  0
 42 43  1  6
  5  1  1  0
 15 10  1  0
 42 16  1  0
 42  1  1  0
 40 24  1  0
 39 28  1  0
 38 30  1  0
 38 33  1  0
  1 44  1  1
  2 45  1  0
  2 46  1  0
  3 47  1  0
  3 48  1  0
  4 49  1  0
  4 50  1  0
  8 51  1  6
  9 52  1  0
  9 53  1  0
 11 54  1  0
 12 55  1  0
 13 56  1  0
 14 57  1  0
 15 58  1  0
 20 59  1  0
 20 60  1  0
 20 61  1  0
 21 62  1  0
 24 63  1  6
 25 64  1  0
 25 65  1  0
 27 66  1  0
 27 67  1  0
 27 68  1  0
 28 69  1  6
 29 70  1  0
 29 71  1  0
 31 72  1  0
 32 73  1  0
 34 74  1  0
 35 75  1  0
 36 76  1  0
 40 77  1  0
 43 78  1  0
M  END
$$$$
