
     RDKit          3D

 10  9  0  0  0  0  0  0  0  0999 V2000
   -1.4558   -0.0416    0.1343 C   0  0  0  0  0  0  0  0  0  0  0  0
   -0.0977    0.3383   -0.3585 C   0  0  0  0  0  0  0  0  0  0  0  0
    0.0178    1.0581   -1.3865 O   0  0  0  0  0  0  0  0  0  0  0  0
    1.0676   -0.0865    0.3518 N   0  0  0  0  0  0  0  0  0  0  0  0
    2.3030    0.2716   -0.0729 O   0  0  0  0  0  0  0  0  0  0  0  0
   -1.4823   -1.1281    0.3603 H   0  0  0  0  0  0  0  0  0  0  0  0
   -2.2260    0.1825   -0.6341 H   0  0  0  0  0  0  0  0  0  0  0  0
   -1.6872    0.5295    1.0573 H   0  0  0  0  0  0  0  0  0  0  0  0
    0.9718   -0.6591    1.2203 H   0  0  0  0  0  0  0  0  0  0  0  0
    2.5889   -0.4647   -0.6719 H   0  0  0  0  0  0  0  0  0  0  0  0
  1  2  1  0
  2  3  2  0
  2  4  1  0
  4  5  1  0
  1  6  1  0
  1  7  1  0
  1  8  1  0
  4  9  1  0
  5 10  1  0
M  END
$$$$
