
     RDKit          3D

 52 55  0  0  0  0  0  0  0  0999 V2000
   -3.1914   -1.8418   -0.8764 C   0  0  2  0  0  0  0  0  0  0  0  0
   -3.6121   -3.1794   -0.2530 C   0  0  0  0  0  0  0  0  0  0  0  0
   -1.7339   -1.8193   -1.0470 N   0  0  0  0  0  0  0  0  0  0  0  0
   -1.0635   -2.0746   -2.3088 C   0  0  0  0  0  0  0  0  0  0  0  0
    0.4459   -1.9591   -2.0246 C   0  0  0  0  0  0  0  0  0  0  0  0
    0.6258   -1.7956   -0.4988 C   0  0  2  0  0  0  0  0  0  0  0  0
    1.3044   -2.9647    0.0831 N   0  0  0  0  0  0  0  0  0  0  0  0
    3.0316   -2.7952   -0.0507 S   0  0  0  0  0  6  0  0  0  0  0  0
    3.4270   -2.5541   -1.4808 O   0  0  0  0  0  0  0  0  0  0  0  0
    3.6921   -4.0586    0.4235 O   0  0  0  0  0  0  0  0  0  0  0  0
    3.5870   -1.4583    0.9382 C   0  0  0  0  0  0  0  0  0  0  0  0
    3.7298   -1.5335    2.2748 N   0  0  0  0  0  0  0  0  0  0  0  0
    4.1332   -0.3362    2.6558 N   0  0  0  0  0  0  0  0  0  0  0  0
    4.2231    0.4358    1.5589 C   0  0  0  0  0  0  0  0  0  0  0  0
    3.8830   -0.2382    0.4424 N   0  0  0  0  0  0  0  0  0  0  0  0
    4.6322    1.8469    1.5683 C   0  0  0  0  0  0  0  0  0  0  0  0
    4.7244    2.6718    0.4517 C   0  0  0  0  0  0  0  0  0  0  0  0
    5.1375    3.9734    0.7597 C   0  0  0  0  0  0  0  0  0  0  0  0
    5.3676    4.1654    2.1141 C   0  0  0  0  0  0  0  0  0  0  0  0
    5.8920    5.6603    2.8596 Cl  0  0  0  0  0  0  0  0  0  0  0  0
    5.0622    2.7319    2.9355 S   0  0  0  0  0  0  0  0  0  0  0  0
   -0.7725   -1.7018   -0.0130 C   0  0  0  0  0  0  0  0  0  0  0  0
   -1.0800   -1.5108    1.1943 O   0  0  0  0  0  0  0  0  0  0  0  0
   -3.6554   -0.6445   -0.0629 C   0  0  0  0  0  0  0  0  0  0  0  0
   -4.3361   -0.8377    0.9828 O   0  0  0  0  0  0  0  0  0  0  0  0
   -3.3273    0.7107   -0.4480 N   0  0  0  0  0  0  0  0  0  0  0  0
   -2.7816    1.0176   -1.7771 C   0  0  0  0  0  0  0  0  0  0  0  0
   -3.1033    2.4643   -2.1630 C   0  0  0  0  0  0  0  0  0  0  0  0
   -2.7074    3.3574   -1.1414 O   0  0  0  0  0  0  0  0  0  0  0  0
   -3.4860    3.1255    0.0152 C   0  0  0  0  0  0  0  0  0  0  0  0
   -3.1990    1.7375    0.5951 C   0  0  0  0  0  0  0  0  0  0  0  0
   -3.6788   -1.7901   -1.8739 H   0  0  0  0  0  0  0  0  0  0  0  0
   -3.2554   -4.0190   -0.8868 H   0  0  0  0  0  0  0  0  0  0  0  0
   -4.7195   -3.2409   -0.1865 H   0  0  0  0  0  0  0  0  0  0  0  0
   -3.1801   -3.2948    0.7639 H   0  0  0  0  0  0  0  0  0  0  0  0
   -1.3799   -1.3325   -3.0723 H   0  0  0  0  0  0  0  0  0  0  0  0
   -1.3130   -3.0990   -2.6609 H   0  0  0  0  0  0  0  0  0  0  0  0
    0.9704   -2.8603   -2.4104 H   0  0  0  0  0  0  0  0  0  0  0  0
    0.8575   -1.0664   -2.5446 H   0  0  0  0  0  0  0  0  0  0  0  0
    1.1510   -0.8451   -0.2562 H   0  0  0  0  0  0  0  0  0  0  0  0
    1.1060   -2.9997    1.1101 H   0  0  0  0  0  0  0  0  0  0  0  0
    4.3348   -0.0646    3.6435 H   0  0  0  0  0  0  0  0  0  0  0  0
    4.4999    2.3463   -0.5557 H   0  0  0  0  0  0  0  0  0  0  0  0
    5.2638    4.7493    0.0165 H   0  0  0  0  0  0  0  0  0  0  0  0
   -3.2226    0.3533   -2.5487 H   0  0  0  0  0  0  0  0  0  0  0  0
   -1.6790    0.8795   -1.7617 H   0  0  0  0  0  0  0  0  0  0  0  0
   -2.5449    2.7175   -3.0888 H   0  0  0  0  0  0  0  0  0  0  0  0
   -4.1871    2.5737   -2.3976 H   0  0  0  0  0  0  0  0  0  0  0  0
   -3.2234    3.8900    0.7765 H   0  0  0  0  0  0  0  0  0  0  0  0
   -4.5733    3.2411   -0.1996 H   0  0  0  0  0  0  0  0  0  0  0  0
   -3.9104    1.5541    1.4288 H   0  0  0  0  0  0  0  0  0  0  0  0
   -2.1653    1.7123    1.0030 H   0  0  0  0  0  0  0  0  0  0  0  0
  1  2  1  0
  1  3  1  0
  3  4  1  0
  4  5  1  0
  5  6  1  0
  6  7  1  0
  7  8  1  0
  8  9  2  0
  8 10  2  0
  8 11  1  0
 11 12  2  0
 12 13  1  0
 13 14  1  0
 14 15  2  0
 14 16  1  0
 16 17  2  0
 17 18  1  0
 18 19  2  0
 19 20  1  0
 19 21  1  0
  6 22  1  0
 22 23  2  0
  1 24  1  0
 24 25  2  0
 24 26  1  0
 26 27  1  0
 27 28  1  0
 28 29  1  0
 29 30  1  0
 30 31  1  0
 22  3  1  0
 31 26  1  0
 15 11  1  0
 21 16  1  0
  1 32  1  6
  2 33  1  0
  2 34  1  0
  2 35  1  0
  4 36  1  0
  4 37  1  0
  5 38  1  0
  5 39  1  0
  6 40  1  6
  7 41  1  0
 13 42  1  0
 17 43  1  0
 18 44  1  0
 27 45  1  0
 27 46  1  0
 28 47  1  0
 28 48  1  0
 30 49  1  0
 30 50  1  0
 31 51  1  0
 31 52  1  0
M  END
$$$$
