
     RDKit          3D

 49 50  0  0  0  0  0  0  0  0999 V2000
   -1.9572    3.0911    0.1387 N   0  0  0  0  0  0  0  0  0  0  0  0
   -3.1111    3.9511    0.3664 C   0  0  0  0  0  0  0  0  0  0  0  0
   -1.5252    2.7424   -1.1837 C   0  0  0  0  0  0  0  0  0  0  0  0
   -2.1116    3.2269   -2.1896 O   0  0  0  0  0  0  0  0  0  0  0  0
   -0.3499    1.8191   -1.3848 C   0  0  1  0  0  0  0  0  0  0  0  0
    0.9590    2.6001   -1.1348 C   0  0  0  0  0  0  0  0  0  0  0  0
    2.1183    1.6618   -0.9628 C   0  0  0  0  0  0  0  0  0  0  0  0
    1.9444    0.5129   -0.1805 C   0  0  0  0  0  0  0  0  0  0  0  0
    0.5925    0.2460    0.4225 C   0  0  0  0  0  0  0  0  0  0  0  0
   -0.4733    0.6173   -0.5250 N   0  0  0  0  0  0  0  0  0  0  0  0
   -1.6493   -0.2122   -0.6189 C   0  0  0  0  0  0  0  0  0  0  0  0
   -2.4344   -0.0783   -1.5969 O   0  0  0  0  0  0  0  0  0  0  0  0
   -1.9147   -1.1573    0.3856 O   0  0  0  0  0  0  0  0  0  0  0  0
   -3.0526   -2.0289    0.4557 C   0  0  0  0  0  0  0  0  0  0  0  0
   -4.3561   -1.2121    0.5442 C   0  0  0  0  0  0  0  0  0  0  0  0
   -3.0857   -2.9773   -0.7579 C   0  0  0  0  0  0  0  0  0  0  0  0
   -2.9035   -2.8658    1.7353 C   0  0  0  0  0  0  0  0  0  0  0  0
    3.0314   -0.3412    0.0622 C   0  0  0  0  0  0  0  0  0  0  0  0
    4.2956   -0.0610   -0.4921 C   0  0  0  0  0  0  0  0  0  0  0  0
    4.4550    1.0953   -1.2724 C   0  0  0  0  0  0  0  0  0  0  0  0
    3.3780    1.9557   -1.4999 C   0  0  0  0  0  0  0  0  0  0  0  0
    5.4302   -0.9186   -0.2730 N   0  0  0  0  0  0  0  0  0  0  0  0
    5.3590   -2.4191    0.5946 S   0  0  0  0  0  6  0  0  0  0  0  0
    4.2066   -3.4224   -0.1076 O   0  0  0  0  0  0  0  0  0  0  0  0
    5.0103   -2.1544    2.0325 O   0  0  0  0  0  0  0  0  0  0  0  0
    6.7022   -3.0896    0.5258 O   0  0  0  0  0  0  0  0  0  0  0  0
   -1.4413    2.7140    0.9653 H   0  0  0  0  0  0  0  0  0  0  0  0
   -3.2732    4.0838    1.4569 H   0  0  0  0  0  0  0  0  0  0  0  0
   -4.0179    3.4890   -0.0778 H   0  0  0  0  0  0  0  0  0  0  0  0
   -2.9361    4.9459   -0.0946 H   0  0  0  0  0  0  0  0  0  0  0  0
   -0.3383    1.4789   -2.4449 H   0  0  0  0  0  0  0  0  0  0  0  0
    1.1372    3.2950   -1.9851 H   0  0  0  0  0  0  0  0  0  0  0  0
    0.8757    3.2092   -0.2079 H   0  0  0  0  0  0  0  0  0  0  0  0
    0.5179   -0.8299    0.6932 H   0  0  0  0  0  0  0  0  0  0  0  0
    0.4816    0.8449    1.3511 H   0  0  0  0  0  0  0  0  0  0  0  0
   -5.2243   -1.8808    0.7295 H   0  0  0  0  0  0  0  0  0  0  0  0
   -4.2913   -0.4763    1.3743 H   0  0  0  0  0  0  0  0  0  0  0  0
   -4.5526   -0.6590   -0.3967 H   0  0  0  0  0  0  0  0  0  0  0  0
   -2.1119   -3.5025   -0.8602 H   0  0  0  0  0  0  0  0  0  0  0  0
   -3.2849   -2.4254   -1.6988 H   0  0  0  0  0  0  0  0  0  0  0  0
   -3.8877   -3.7374   -0.6378 H   0  0  0  0  0  0  0  0  0  0  0  0
   -3.7568   -3.5684    1.8547 H   0  0  0  0  0  0  0  0  0  0  0  0
   -2.8637   -2.2030    2.6265 H   0  0  0  0  0  0  0  0  0  0  0  0
   -1.9618   -3.4552    1.7024 H   0  0  0  0  0  0  0  0  0  0  0  0
    2.8811   -1.2128    0.6827 H   0  0  0  0  0  0  0  0  0  0  0  0
    5.4204    1.3350   -1.7003 H   0  0  0  0  0  0  0  0  0  0  0  0
    3.5282    2.8509   -2.0903 H   0  0  0  0  0  0  0  0  0  0  0  0
    6.3560   -0.6483   -0.6747 H   0  0  0  0  0  0  0  0  0  0  0  0
    4.1859   -4.2290    0.4669 H   0  0  0  0  0  0  0  0  0  0  0  0
  1  2  1  0
  1  3  1  0
  3  4  2  0
  3  5  1  0
  5  6  1  0
  6  7  1  0
  7  8  2  0
  8  9  1  0
  9 10  1  0
 10 11  1  0
 11 12  2  0
 11 13  1  0
 13 14  1  0
 14 15  1  0
 14 16  1  0
 14 17  1  0
  8 18  1  0
 18 19  2  0
 19 20  1  0
 20 21  2  0
 19 22  1  0
 22 23  1  0
 23 24  1  0
 23 25  2  0
 23 26  2  0
 10  5  1  0
 21  7  1  0
  1 27  1  0
  2 28  1  0
  2 29  1  0
  2 30  1  0
  5 31  1  6
  6 32  1  0
  6 33  1  0
  9 34  1  0
  9 35  1  0
 15 36  1  0
 15 37  1  0
 15 38  1  0
 16 39  1  0
 16 40  1  0
 16 41  1  0
 17 42  1  0
 17 43  1  0
 17 44  1  0
 18 45  1  0
 20 46  1  0
 21 47  1  0
 22 48  1  0
 24 49  1  0
M  END
$$$$
