
     RDKit          3D

 53 57  0  0  0  0  0  0  0  0999 V2000
   -2.3122    0.9952   -0.6721 C   0  0  2  0  0  0  0  0  0  0  0  0
   -2.6175    2.1808   -1.4800 N   0  0  0  0  0  0  0  0  0  0  0  0
   -0.8037    0.9284   -0.3881 C   0  0  0  0  0  0  0  0  0  0  0  0
   -0.4086    2.0405    0.4127 O   0  0  0  0  0  0  0  0  0  0  0  0
    0.9024    2.2754    0.8521 C   0  0  0  0  0  0  0  0  0  0  0  0
    1.1536    3.4055    1.6335 C   0  0  0  0  0  0  0  0  0  0  0  0
    2.4099    3.6682    2.0780 N   0  0  0  0  0  0  0  0  0  0  0  0
    3.4593    2.8570    1.7841 C   0  0  0  0  0  0  0  0  0  0  0  0
    3.2690    1.7052    1.0030 C   0  0  0  0  0  0  0  0  0  0  0  0
    1.9739    1.4212    0.5372 C   0  0  0  0  0  0  0  0  0  0  0  0
    4.4078    0.8090    0.6790 C   0  0  0  0  0  0  0  0  0  0  0  0
    5.6841    1.3530    0.3589 C   0  0  0  0  0  0  0  0  0  0  0  0
    6.7713    0.5135    0.0508 C   0  0  0  0  0  0  0  0  0  0  0  0
    6.5517   -0.8595    0.0690 C   0  0  0  0  0  0  0  0  0  0  0  0
    7.4272   -1.8479   -0.1769 N   0  0  0  0  0  0  0  0  0  0  0  0
    6.8003   -3.0112   -0.0368 N   0  0  0  0  0  0  0  0  0  0  0  0
    5.5109   -2.7572    0.2940 C   0  0  0  0  0  0  0  0  0  0  0  0
    4.4885   -3.8089    0.5726 C   0  0  0  0  0  0  0  0  0  0  0  0
    5.3335   -1.3913    0.3720 C   0  0  0  0  0  0  0  0  0  0  0  0
    4.2338   -0.5971    0.6855 C   0  0  0  0  0  0  0  0  0  0  0  0
   -2.7606   -0.2837   -1.4086 C   0  0  0  0  0  0  0  0  0  0  0  0
   -4.2556   -0.3718   -1.5167 C   0  0  0  0  0  0  0  0  0  0  0  0
   -5.0286   -0.0625   -2.6322 C   0  0  0  0  0  0  0  0  0  0  0  0
   -6.3433   -0.2111   -2.3509 N   0  0  0  0  0  0  0  0  0  0  0  0
   -6.4067   -0.6046   -1.0668 C   0  0  0  0  0  0  0  0  0  0  0  0
   -7.5533   -0.8745   -0.3209 C   0  0  0  0  0  0  0  0  0  0  0  0
   -7.3881   -1.2643    1.0209 C   0  0  0  0  0  0  0  0  0  0  0  0
   -6.0957   -1.3726    1.5811 C   0  0  0  0  0  0  0  0  0  0  0  0
   -4.9564   -1.0928    0.8046 C   0  0  0  0  0  0  0  0  0  0  0  0
   -5.1523   -0.7110   -0.5228 C   0  0  0  0  0  0  0  0  0  0  0  0
   -2.8461    1.0620    0.3037 H   0  0  0  0  0  0  0  0  0  0  0  0
   -2.3136    3.0326   -0.9551 H   0  0  0  0  0  0  0  0  0  0  0  0
   -3.6557    2.2686   -1.5651 H   0  0  0  0  0  0  0  0  0  0  0  0
   -0.2425    0.9397   -1.3486 H   0  0  0  0  0  0  0  0  0  0  0  0
   -0.5698   -0.0107    0.1603 H   0  0  0  0  0  0  0  0  0  0  0  0
    0.3456    4.0782    1.8896 H   0  0  0  0  0  0  0  0  0  0  0  0
    4.4369    3.1033    2.1773 H   0  0  0  0  0  0  0  0  0  0  0  0
    1.8099    0.5495   -0.0815 H   0  0  0  0  0  0  0  0  0  0  0  0
    5.8331    2.4248    0.3318 H   0  0  0  0  0  0  0  0  0  0  0  0
    7.7428    0.9232   -0.1937 H   0  0  0  0  0  0  0  0  0  0  0  0
    8.4349   -1.7440   -0.4296 H   0  0  0  0  0  0  0  0  0  0  0  0
    4.8767   -4.8068    0.2793 H   0  0  0  0  0  0  0  0  0  0  0  0
    3.5651   -3.5977   -0.0061 H   0  0  0  0  0  0  0  0  0  0  0  0
    4.2492   -3.8158    1.6563 H   0  0  0  0  0  0  0  0  0  0  0  0
    3.2856   -1.0528    0.9414 H   0  0  0  0  0  0  0  0  0  0  0  0
   -2.3109   -0.3102   -2.4254 H   0  0  0  0  0  0  0  0  0  0  0  0
   -2.4014   -1.1825   -0.8616 H   0  0  0  0  0  0  0  0  0  0  0  0
   -4.6494    0.2628   -3.5922 H   0  0  0  0  0  0  0  0  0  0  0  0
   -7.1441   -0.0435   -2.9998 H   0  0  0  0  0  0  0  0  0  0  0  0
   -8.5395   -0.7857   -0.7580 H   0  0  0  0  0  0  0  0  0  0  0  0
   -8.2573   -1.4812    1.6282 H   0  0  0  0  0  0  0  0  0  0  0  0
   -5.9809   -1.6721    2.6147 H   0  0  0  0  0  0  0  0  0  0  0  0
   -3.9633   -1.1725    1.2273 H   0  0  0  0  0  0  0  0  0  0  0  0
  1  2  1  0
  1  3  1  0
  3  4  1  0
  4  5  1  0
  5  6  2  0
  6  7  1  0
  7  8  2  0
  8  9  1  0
  9 10  2  0
  9 11  1  0
 11 12  2  0
 12 13  1  0
 13 14  2  0
 14 15  1  0
 15 16  1  0
 16 17  2  0
 17 18  1  0
 17 19  1  0
 19 20  2  0
  1 21  1  0
 21 22  1  0
 22 23  2  0
 23 24  1  0
 24 25  1  0
 25 26  2  0
 26 27  1  0
 27 28  2  0
 28 29  1  0
 29 30  2  0
 10  5  1  0
 20 11  1  0
 30 22  1  0
 19 14  1  0
 30 25  1  0
  1 31  1  1
  2 32  1  0
  2 33  1  0
  3 34  1  0
  3 35  1  0
  6 36  1  0
  8 37  1  0
 10 38  1  0
 12 39  1  0
 13 40  1  0
 15 41  1  0
 18 42  1  0
 18 43  1  0
 18 44  1  0
 20 45  1  0
 21 46  1  0
 21 47  1  0
 23 48  1  0
 24 49  1  0
 26 50  1  0
 27 51  1  0
 28 52  1  0
 29 53  1  0
M  END
$$$$
