
     RDKit          3D

 43 46  0  0  0  0  0  0  0  0999 V2000
   -6.3565    1.6946   -0.8745 O   0  0  0  0  0  0  0  0  0  0  0  0
   -5.0213    1.3678   -1.1587 C   0  0  0  0  0  0  0  0  0  0  0  0
   -4.7605   -0.1194   -0.8785 C   0  0  1  0  0  0  0  0  0  0  0  0
   -3.4955   -0.4683   -1.4093 O   0  0  0  0  0  0  0  0  0  0  0  0
   -2.6677   -0.8945   -0.3471 C   0  0  2  0  0  0  0  0  0  0  0  0
   -3.3159   -0.4844    0.9726 C   0  0  2  0  0  0  0  0  0  0  0  0
   -3.0149   -1.3470    2.0452 O   0  0  0  0  0  0  0  0  0  0  0  0
   -4.7851   -0.4410    0.6254 C   0  0  2  0  0  0  0  0  0  0  0  0
   -5.4328   -1.6676    0.8770 O   0  0  0  0  0  0  0  0  0  0  0  0
   -1.3375   -0.2980   -0.4748 N   0  0  0  0  0  0  0  0  0  0  0  0
   -1.0155    0.9430   -0.9257 C   0  0  0  0  0  0  0  0  0  0  0  0
    0.3113    1.2295   -0.8161 N   0  0  0  0  0  0  0  0  0  0  0  0
    0.8126    0.1097   -0.2607 C   0  0  0  0  0  0  0  0  0  0  0  0
    2.1198   -0.1821    0.1150 C   0  0  0  0  0  0  0  0  0  0  0  0
    3.1858    0.7572   -0.0887 N   0  0  0  0  0  0  0  0  0  0  0  0
    4.5692    0.4528    0.2935 C   0  0  2  0  0  0  0  0  0  0  0  0
    5.4888    1.6265    0.1087 C   0  0  0  0  0  0  0  0  0  0  0  0
    6.8101    0.9587   -0.2127 C   0  0  0  0  0  0  0  0  0  0  0  0
    6.5681   -0.3189   -0.7590 O   0  0  0  0  0  0  0  0  0  0  0  0
    5.1927   -0.5937   -0.6147 C   0  0  0  0  0  0  0  0  0  0  0  0
    2.3495   -1.3998    0.6960 N   0  0  0  0  0  0  0  0  0  0  0  0
    1.3348   -2.2995    0.9032 C   0  0  0  0  0  0  0  0  0  0  0  0
    0.0546   -1.9989    0.5305 N   0  0  0  0  0  0  0  0  0  0  0  0
   -0.1702   -0.7955   -0.0499 C   0  0  0  0  0  0  0  0  0  0  0  0
   -6.3699    2.1161    0.0239 H   0  0  0  0  0  0  0  0  0  0  0  0
   -4.8402    1.5666   -2.2366 H   0  0  0  0  0  0  0  0  0  0  0  0
   -4.3111    2.0052   -0.5809 H   0  0  0  0  0  0  0  0  0  0  0  0
   -5.5402   -0.7094   -1.4099 H   0  0  0  0  0  0  0  0  0  0  0  0
   -2.5792   -2.0017   -0.4157 H   0  0  0  0  0  0  0  0  0  0  0  0
   -2.9890    0.5444    1.2457 H   0  0  0  0  0  0  0  0  0  0  0  0
   -3.1451   -2.2846    1.7486 H   0  0  0  0  0  0  0  0  0  0  0  0
   -5.2940    0.3463    1.2226 H   0  0  0  0  0  0  0  0  0  0  0  0
   -5.0350   -2.3593    0.2851 H   0  0  0  0  0  0  0  0  0  0  0  0
   -1.7399    1.6444   -1.3188 H   0  0  0  0  0  0  0  0  0  0  0  0
    2.9512    1.6990   -0.4779 H   0  0  0  0  0  0  0  0  0  0  0  0
    4.6093    0.1154    1.3543 H   0  0  0  0  0  0  0  0  0  0  0  0
    5.1772    2.2542   -0.7560 H   0  0  0  0  0  0  0  0  0  0  0  0
    5.5524    2.2503    1.0268 H   0  0  0  0  0  0  0  0  0  0  0  0
    7.4105    0.8433    0.7159 H   0  0  0  0  0  0  0  0  0  0  0  0
    7.3904    1.5718   -0.9349 H   0  0  0  0  0  0  0  0  0  0  0  0
    4.7201   -0.5720   -1.6215 H   0  0  0  0  0  0  0  0  0  0  0  0
    5.0598   -1.6088   -0.1839 H   0  0  0  0  0  0  0  0  0  0  0  0
    1.5491   -3.2525    1.3667 H   0  0  0  0  0  0  0  0  0  0  0  0
  1  2  1  0
  2  3  1  0
  3  4  1  0
  4  5  1  0
  5  6  1  0
  6  7  1  0
  6  8  1  0
  8  9  1  0
  5 10  1  0
 10 11  1  0
 11 12  2  0
 12 13  1  0
 13 14  2  0
 14 15  1  0
 15 16  1  0
 16 17  1  0
 17 18  1  0
 18 19  1  0
 19 20  1  0
 14 21  1  0
 21 22  2  0
 22 23  1  0
 23 24  2  0
  8  3  1  0
 24 10  1  0
 24 13  1  0
 20 16  1  0
  1 25  1  0
  2 26  1  0
  2 27  1  0
  3 28  1  6
  5 29  1  1
  6 30  1  1
  7 31  1  0
  8 32  1  1
  9 33  1  0
 11 34  1  0
 15 35  1  0
 16 36  1  1
 17 37  1  0
 17 38  1  0
 18 39  1  0
 18 40  1  0
 20 41  1  0
 20 42  1  0
 22 43  1  0
M  END
$$$$
