
     RDKit          3D

 36 38  0  0  0  0  0  0  0  0999 V2000
    1.5930   -3.1138    0.2795 O   0  0  0  0  0  0  0  0  0  0  0  0
    1.0376   -1.8273    0.1295 C   0  0  2  0  0  0  0  0  0  0  0  0
    1.6176   -0.7972    1.0956 C   0  0  1  0  0  0  0  0  0  0  0  0
    2.9368   -0.1986    0.5954 C   0  0  0  0  0  0  0  0  0  0  0  0
    2.7123    0.5417   -0.5822 O   0  0  0  0  0  0  0  0  0  0  0  0
    4.1991    1.1941   -1.1022 P   0  0  0  0  0  5  0  0  0  0  0  0
    3.9576    2.0065   -2.5661 O   0  0  0  0  0  0  0  0  0  0  0  0
    5.3321   -0.0427   -1.3349 O   0  0  0  0  0  0  0  0  0  0  0  0
    4.7213    2.1747   -0.0758 O   0  0  0  0  0  0  0  0  0  0  0  0
    0.6555    0.2165    1.2665 O   0  0  0  0  0  0  0  0  0  0  0  0
   -0.6131   -0.3558    1.0100 C   0  0  2  0  0  0  0  0  0  0  0  0
   -0.4413   -1.7695    0.4326 C   0  0  2  0  0  0  0  0  0  0  0  0
   -0.8004   -2.7334    1.3903 O   0  0  0  0  0  0  0  0  0  0  0  0
   -1.3528    0.4903    0.0714 N   0  0  0  0  0  0  0  0  0  0  0  0
   -0.8795    1.1356   -1.0275 C   0  0  0  0  0  0  0  0  0  0  0  0
   -1.8533    1.7510   -1.7543 N   0  0  0  0  0  0  0  0  0  0  0  0
   -2.9702    1.4516   -1.0646 C   0  0  0  0  0  0  0  0  0  0  0  0
   -2.6742    0.6946    0.0152 C   0  0  0  0  0  0  0  0  0  0  0  0
   -3.6230    0.2222    0.8592 N   0  0  0  0  0  0  0  0  0  0  0  0
   -4.9272    0.5434    0.6017 C   0  0  0  0  0  0  0  0  0  0  0  0
   -5.2548    1.3167   -0.4855 N   0  0  0  0  0  0  0  0  0  0  0  0
   -4.2901    1.7806   -1.3377 C   0  0  0  0  0  0  0  0  0  0  0  0
   -4.5944    2.4810   -2.3398 O   0  0  0  0  0  0  0  0  0  0  0  0
    1.5935   -3.3500    1.2434 H   0  0  0  0  0  0  0  0  0  0  0  0
    1.1916   -1.4965   -0.9220 H   0  0  0  0  0  0  0  0  0  0  0  0
    1.8035   -1.2641    2.0896 H   0  0  0  0  0  0  0  0  0  0  0  0
    3.3378    0.4592    1.3999 H   0  0  0  0  0  0  0  0  0  0  0  0
    3.6530   -1.0321    0.4142 H   0  0  0  0  0  0  0  0  0  0  0  0
    3.5950    1.3175   -3.1782 H   0  0  0  0  0  0  0  0  0  0  0  0
    6.1300    0.4120   -1.7056 H   0  0  0  0  0  0  0  0  0  0  0  0
   -1.1706   -0.3971    1.9726 H   0  0  0  0  0  0  0  0  0  0  0  0
   -1.0292   -1.9243   -0.5033 H   0  0  0  0  0  0  0  0  0  0  0  0
   -1.7927   -2.7633    1.4006 H   0  0  0  0  0  0  0  0  0  0  0  0
    0.1638    1.1473   -1.3126 H   0  0  0  0  0  0  0  0  0  0  0  0
   -5.7054    0.1820    1.2610 H   0  0  0  0  0  0  0  0  0  0  0  0
   -6.2585    1.5471   -0.6624 H   0  0  0  0  0  0  0  0  0  0  0  0
  1  2  1  0
  2  3  1  0
  3  4  1  0
  4  5  1  0
  5  6  1  0
  6  7  1  0
  6  8  1  0
  6  9  2  0
  3 10  1  0
 10 11  1  0
 11 12  1  0
 12 13  1  0
 11 14  1  0
 14 15  1  0
 15 16  2  0
 16 17  1  0
 17 18  2  0
 18 19  1  0
 19 20  2  0
 20 21  1  0
 21 22  1  0
 22 23  2  0
 12  2  1  0
 18 14  1  0
 22 17  1  0
  1 24  1  0
  2 25  1  6
  3 26  1  1
  4 27  1  0
  4 28  1  0
  7 29  1  0
  8 30  1  0
 11 31  1  1
 12 32  1  6
 13 33  1  0
 15 34  1  0
 20 35  1  0
 21 36  1  0
M  END
$$$$
