
     RDKit          3D

 57 59  0  0  0  0  0  0  0  0999 V2000
    0.0680   -0.2530   -3.2163 C   0  0  2  0  0  0  0  0  0  0  0  0
   -0.2574    0.1836   -4.6470 C   0  0  0  0  0  0  0  0  0  0  0  0
   -1.7741    0.3455   -4.6882 C   0  0  0  0  0  0  0  0  0  0  0  0
   -2.3126   -0.5265   -3.5600 C   0  0  0  0  0  0  0  0  0  0  0  0
   -1.1736   -0.8145   -2.7009 N   0  0  0  0  0  0  0  0  0  0  0  0
   -1.2265   -1.6764   -1.5457 C   0  0  0  0  0  0  0  0  0  0  0  0
   -0.1532   -2.0533   -1.0016 O   0  0  0  0  0  0  0  0  0  0  0  0
   -2.5314   -2.1477   -0.9575 C   0  0  0  0  0  0  0  0  0  0  0  0
   -2.7552   -1.6139    0.4677 C   0  0  0  0  0  0  0  0  0  0  0  0
   -3.1692   -0.1259    0.5084 C   0  0  0  0  0  0  0  0  0  0  0  0
   -2.0283    0.8451    0.1897 C   0  0  0  0  0  0  0  0  0  0  0  0
   -2.2090    2.0575    1.1015 C   0  0  0  0  0  0  0  0  0  0  0  0
   -3.4332    1.7816    1.9637 C   0  0  0  0  0  0  0  0  0  0  0  0
   -3.6564    0.2830    1.8940 C   0  0  0  0  0  0  0  0  0  0  0  0
    0.5027    0.9030   -2.3477 C   0  0  0  0  0  0  0  0  0  0  0  0
   -0.0204    2.0414   -2.5021 O   0  0  0  0  0  0  0  0  0  0  0  0
    1.4468    0.6885   -1.2911 N   0  0  0  0  0  0  0  0  0  0  0  0
    1.7865    1.7497   -0.3443 C   0  0  0  0  0  0  0  0  0  0  0  0
    2.6049    1.2001    0.7919 C   0  0  0  0  0  0  0  0  0  0  0  0
    1.9724    0.6494    1.9161 C   0  0  0  0  0  0  0  0  0  0  0  0
    2.7299    0.0991    2.9538 C   0  0  0  0  0  0  0  0  0  0  0  0
    4.1334    0.0824    2.8813 C   0  0  0  0  0  0  0  0  0  0  0  0
    4.7629    0.6197    1.7438 C   0  0  0  0  0  0  0  0  0  0  0  0
    4.0041    1.1684    0.7060 C   0  0  0  0  0  0  0  0  0  0  0  0
    4.9322   -0.5081    3.9847 C   0  0  0  0  0  0  0  0  0  0  0  0
    4.4531   -1.6599    4.6838 N   0  0  0  0  0  0  0  0  0  0  0  0
    6.0669    0.0114    4.3382 N   0  0  0  0  0  0  0  0  0  0  0  0
    0.8625   -1.0314   -3.2460 H   0  0  0  0  0  0  0  0  0  0  0  0
    0.0372   -0.6256   -5.3515 H   0  0  0  0  0  0  0  0  0  0  0  0
    0.2647    1.1177   -4.9507 H   0  0  0  0  0  0  0  0  0  0  0  0
   -2.0383    1.4090   -4.4978 H   0  0  0  0  0  0  0  0  0  0  0  0
   -2.1873    0.0375   -5.6731 H   0  0  0  0  0  0  0  0  0  0  0  0
   -2.7208   -1.4756   -3.9706 H   0  0  0  0  0  0  0  0  0  0  0  0
   -3.0997    0.0166   -2.9937 H   0  0  0  0  0  0  0  0  0  0  0  0
   -3.3984   -1.8844   -1.5959 H   0  0  0  0  0  0  0  0  0  0  0  0
   -2.4997   -3.2577   -0.9143 H   0  0  0  0  0  0  0  0  0  0  0  0
   -3.5772   -2.2129    0.9183 H   0  0  0  0  0  0  0  0  0  0  0  0
   -1.8517   -1.7869    1.0936 H   0  0  0  0  0  0  0  0  0  0  0  0
   -4.0012    0.0465   -0.2124 H   0  0  0  0  0  0  0  0  0  0  0  0
   -2.0736    1.1539   -0.8760 H   0  0  0  0  0  0  0  0  0  0  0  0
   -1.0376    0.3826    0.3894 H   0  0  0  0  0  0  0  0  0  0  0  0
   -2.3516    2.9855    0.5059 H   0  0  0  0  0  0  0  0  0  0  0  0
   -1.3124    2.1827    1.7479 H   0  0  0  0  0  0  0  0  0  0  0  0
   -3.2775    2.1179    3.0118 H   0  0  0  0  0  0  0  0  0  0  0  0
   -4.3165    2.3079    1.5385 H   0  0  0  0  0  0  0  0  0  0  0  0
   -3.0490   -0.2114    2.6855 H   0  0  0  0  0  0  0  0  0  0  0  0
   -4.7284    0.0271    2.0404 H   0  0  0  0  0  0  0  0  0  0  0  0
    1.8838   -0.2561   -1.1905 H   0  0  0  0  0  0  0  0  0  0  0  0
    2.3468    2.5505   -0.8737 H   0  0  0  0  0  0  0  0  0  0  0  0
    0.8544    2.2033    0.0581 H   0  0  0  0  0  0  0  0  0  0  0  0
    0.8923    0.6476    1.9914 H   0  0  0  0  0  0  0  0  0  0  0  0
    2.2164   -0.2989    3.8198 H   0  0  0  0  0  0  0  0  0  0  0  0
    5.8406    0.5941    1.6436 H   0  0  0  0  0  0  0  0  0  0  0  0
    4.5077    1.5631   -0.1679 H   0  0  0  0  0  0  0  0  0  0  0  0
    3.5917   -2.1617    4.3742 H   0  0  0  0  0  0  0  0  0  0  0  0
    4.9932   -2.0509    5.4877 H   0  0  0  0  0  0  0  0  0  0  0  0
    6.4665    0.8634    3.8856 H   0  0  0  0  0  0  0  0  0  0  0  0
  1  2  1  0
  2  3  1  0
  3  4  1  0
  4  5  1  0
  5  6  1  0
  6  7  2  0
  6  8  1  0
  8  9  1  0
  9 10  1  0
 10 11  1  0
 11 12  1  0
 12 13  1  0
 13 14  1  0
  1 15  1  0
 15 16  2  0
 15 17  1  0
 17 18  1  0
 18 19  1  0
 19 20  2  0
 20 21  1  0
 21 22  2  0
 22 23  1  0
 23 24  2  0
 22 25  1  0
 25 26  1  0
 25 27  2  3
  5  1  1  0
 14 10  1  0
 24 19  1  0
  1 28  1  6
  2 29  1  0
  2 30  1  0
  3 31  1  0
  3 32  1  0
  4 33  1  0
  4 34  1  0
  8 35  1  0
  8 36  1  0
  9 37  1  0
  9 38  1  0
 10 39  1  0
 11 40  1  0
 11 41  1  0
 12 42  1  0
 12 43  1  0
 13 44  1  0
 13 45  1  0
 14 46  1  0
 14 47  1  0
 17 48  1  0
 18 49  1  0
 18 50  1  0
 20 51  1  0
 21 52  1  0
 23 53  1  0
 24 54  1  0
 26 55  1  0
 26 56  1  0
 27 57  1  0
M  END
$$$$
