
     RDKit          3D

 65 68  0  0  0  0  0  0  0  0999 V2000
   -2.9834   -1.5495   -1.4640 C   0  0  1  0  0  0  0  0  0  0  0  0
   -4.1723   -0.5567   -1.5169 C   0  0  0  0  0  0  0  0  0  0  0  0
   -3.6493    0.7764   -0.9514 C   0  0  0  0  0  0  0  0  0  0  0  0
   -2.1570    0.5390   -0.7275 C   0  0  1  0  0  0  0  0  0  0  0  0
   -1.3881    1.4221    0.2764 C   0  0  2  0  0  0  0  0  0  0  0  0
   -1.6340    2.9449    0.0603 C   0  0  0  0  0  0  0  0  0  0  0  0
   -0.3788    3.7588   -0.2695 C   0  0  0  0  0  0  0  0  0  0  0  0
    0.7852    3.4290    0.6389 C   0  0  0  0  0  0  0  0  0  0  0  0
    1.7098    4.3812    0.8512 C   0  0  0  0  0  0  0  0  0  0  0  0
    2.9991    4.0845    1.4881 C   0  0  0  0  0  0  0  0  0  0  0  0
    3.7829    5.0296    1.7687 O   0  0  0  0  0  0  0  0  0  0  0  0
    3.3979    2.6776    1.8087 C   0  0  0  0  0  0  0  0  0  0  0  0
    2.5022    1.6479    1.0989 C   0  0  0  0  0  0  0  0  0  0  0  0
    0.9816    1.9955    1.1511 C   0  0  1  0  0  0  0  0  0  0  0  0
    0.5010    1.9265    2.6256 C   0  0  0  0  0  0  0  0  0  0  0  0
    0.1342    1.0357    0.2175 C   0  0  1  0  0  0  0  0  0  0  0  0
    0.3593   -0.5092    0.4081 C   0  0  1  0  0  0  0  0  0  0  0  0
   -0.5729   -1.3654   -0.4997 C   0  0  0  0  0  0  0  0  0  0  0  0
   -2.0540   -0.9552   -0.3798 C   0  0  2  0  0  0  0  0  0  0  0  0
   -2.5957   -1.3252    1.0417 C   0  0  0  0  0  0  0  0  0  0  0  0
    1.7032   -0.8465    0.0640 O   0  0  0  0  0  0  0  0  0  0  0  0
    2.3389   -2.0245    0.4721 C   0  0  0  0  0  0  0  0  0  0  0  0
    1.7472   -2.8572    1.2119 O   0  0  0  0  0  0  0  0  0  0  0  0
    3.7259   -2.3080   -0.0069 C   0  0  0  0  0  0  0  0  0  0  0  0
    3.6903   -2.8861   -1.4220 C   0  0  0  0  0  0  0  0  0  0  0  0
    5.0772   -3.1644   -1.9078 C   0  0  0  0  0  0  0  0  0  0  0  0
    5.6712   -4.3938   -1.6407 O   0  0  0  0  0  0  0  0  0  0  0  0
    5.7217   -2.2734   -2.5231 O   0  0  0  0  0  0  0  0  0  0  0  0
   -3.3413   -3.0161   -1.2701 C   0  0  0  0  0  0  0  0  0  0  0  0
   -4.7433   -3.4860   -1.0028 C   0  0  0  0  0  0  0  0  0  0  0  0
   -2.4521   -3.8505   -1.3484 O   0  0  0  0  0  0  0  0  0  0  0  0
   -2.4669   -1.4844   -2.4502 H   0  0  0  0  0  0  0  0  0  0  0  0
   -4.5229   -0.4317   -2.5647 H   0  0  0  0  0  0  0  0  0  0  0  0
   -5.0304   -0.8848   -0.8950 H   0  0  0  0  0  0  0  0  0  0  0  0
   -4.1539    1.0236    0.0083 H   0  0  0  0  0  0  0  0  0  0  0  0
   -3.8253    1.5988   -1.6780 H   0  0  0  0  0  0  0  0  0  0  0  0
   -1.6782    0.7126   -1.7230 H   0  0  0  0  0  0  0  0  0  0  0  0
   -1.7842    1.1942    1.2830 H   0  0  0  0  0  0  0  0  0  0  0  0
   -2.3710    3.1321   -0.7468 H   0  0  0  0  0  0  0  0  0  0  0  0
   -2.0815    3.3696    0.9865 H   0  0  0  0  0  0  0  0  0  0  0  0
   -0.0769    3.5599   -1.3206 H   0  0  0  0  0  0  0  0  0  0  0  0
   -0.6406    4.8380   -0.1974 H   0  0  0  0  0  0  0  0  0  0  0  0
    1.5499    5.3867    0.4792 H   0  0  0  0  0  0  0  0  0  0  0  0
    3.3580    2.5307    2.9087 H   0  0  0  0  0  0  0  0  0  0  0  0
    4.4510    2.5150    1.4927 H   0  0  0  0  0  0  0  0  0  0  0  0
    2.8278    1.5721    0.0373 H   0  0  0  0  0  0  0  0  0  0  0  0
    2.6939    0.6749    1.5967 H   0  0  0  0  0  0  0  0  0  0  0  0
   -0.5442    2.2747    2.7400 H   0  0  0  0  0  0  0  0  0  0  0  0
    1.1018    2.5918    3.2780 H   0  0  0  0  0  0  0  0  0  0  0  0
    0.5828    0.8947    3.0243 H   0  0  0  0  0  0  0  0  0  0  0  0
    0.4762    1.2355   -0.8251 H   0  0  0  0  0  0  0  0  0  0  0  0
    0.1851   -0.7672    1.4724 H   0  0  0  0  0  0  0  0  0  0  0  0
   -0.4619   -2.4385   -0.2356 H   0  0  0  0  0  0  0  0  0  0  0  0
   -0.2384   -1.2562   -1.5556 H   0  0  0  0  0  0  0  0  0  0  0  0
   -2.0120   -0.8746    1.8652 H   0  0  0  0  0  0  0  0  0  0  0  0
   -3.6528   -1.0172    1.1751 H   0  0  0  0  0  0  0  0  0  0  0  0
   -2.5428   -2.4228    1.1997 H   0  0  0  0  0  0  0  0  0  0  0  0
    4.3079   -1.3605   -0.0005 H   0  0  0  0  0  0  0  0  0  0  0  0
    4.2209   -3.0257    0.6841 H   0  0  0  0  0  0  0  0  0  0  0  0
    3.1940   -2.1686   -2.1123 H   0  0  0  0  0  0  0  0  0  0  0  0
    3.1071   -3.8327   -1.4276 H   0  0  0  0  0  0  0  0  0  0  0  0
    6.6157   -4.5921   -1.9487 H   0  0  0  0  0  0  0  0  0  0  0  0
   -5.4182   -3.1462   -1.8159 H   0  0  0  0  0  0  0  0  0  0  0  0
   -4.7814   -4.5955   -0.9585 H   0  0  0  0  0  0  0  0  0  0  0  0
   -5.0948   -3.0872   -0.0285 H   0  0  0  0  0  0  0  0  0  0  0  0
  1  2  1  0
  2  3  1  0
  3  4  1  0
  4  5  1  0
  5  6  1  0
  6  7  1  0
  7  8  1  0
  8  9  2  0
  9 10  1  0
 10 11  2  0
 10 12  1  0
 12 13  1  0
 13 14  1  0
 14 15  1  1
 14 16  1  0
 16 17  1  0
 17 18  1  0
 18 19  1  0
 19 20  1  1
 17 21  1  0
 21 22  1  0
 22 23  2  0
 22 24  1  0
 24 25  1  0
 25 26  1  0
 26 27  1  0
 26 28  2  0
  1 29  1  0
 29 30  1  0
 29 31  2  0
 19  1  1  0
 19  4  1  0
 16  5  1  0
 14  8  1  0
  1 32  1  6
  2 33  1  0
  2 34  1  0
  3 35  1  0
  3 36  1  0
  4 37  1  6
  5 38  1  1
  6 39  1  0
  6 40  1  0
  7 41  1  0
  7 42  1  0
  9 43  1  0
 12 44  1  0
 12 45  1  0
 13 46  1  0
 13 47  1  0
 15 48  1  0
 15 49  1  0
 15 50  1  0
 16 51  1  6
 17 52  1  1
 18 53  1  0
 18 54  1  0
 20 55  1  0
 20 56  1  0
 20 57  1  0
 24 58  1  0
 24 59  1  0
 25 60  1  0
 25 61  1  0
 27 62  1  0
 30 63  1  0
 30 64  1  0
 30 65  1  0
M  END
$$$$
