
     RDKit          3D

 70 72  0  0  0  0  0  0  0  0999 V2000
   -2.7462   -0.7363    1.6907 C   0  0  2  0  0  0  0  0  0  0  0  0
   -4.1075   -1.4419    1.6591 C   0  0  0  0  0  0  0  0  0  0  0  0
   -2.7820    0.4367    2.5872 N   0  0  0  0  0  0  0  0  0  0  0  0
   -2.7305    0.0489    4.0007 C   0  0  0  0  0  0  0  0  0  0  0  0
   -2.3948   -0.3024    0.2883 C   0  0  0  0  0  0  0  0  0  0  0  0
   -2.9604    0.7133   -0.1976 O   0  0  0  0  0  0  0  0  0  0  0  0
   -1.4662   -1.0750   -0.4957 N   0  0  0  0  0  0  0  0  0  0  0  0
   -1.2304   -0.9433   -1.9444 C   0  0  2  0  0  0  0  0  0  0  0  0
   -0.9160    0.4968   -2.3336 C   0  0  0  0  0  0  0  0  0  0  0  0
   -1.8598    1.3050   -2.5429 O   0  0  0  0  0  0  0  0  0  0  0  0
    0.4403    0.9793   -2.4404 N   0  0  0  0  0  0  0  0  0  0  0  0
    0.7352    2.3968   -2.5934 C   0  0  0  0  0  0  0  0  0  0  0  0
    2.2439    2.4942   -2.7694 C   0  0  0  0  0  0  0  0  0  0  0  0
    2.6965    1.0981   -3.1802 C   0  0  0  0  0  0  0  0  0  0  0  0
    1.6183    0.1453   -2.6598 C   0  0  1  0  0  0  0  0  0  0  0  0
    2.0692   -0.5177   -1.3829 C   0  0  0  0  0  0  0  0  0  0  0  0
    2.4966   -1.7030   -1.4283 O   0  0  0  0  0  0  0  0  0  0  0  0
    2.0924    0.2089   -0.1449 N   0  0  0  0  0  0  0  0  0  0  0  0
    2.8328   -0.2695    1.0272 C   0  0  2  0  0  0  0  0  0  0  0  0
    2.0086   -1.3207    1.7883 C   0  0  0  0  0  0  0  0  0  0  0  0
    0.8692   -0.6595    2.5604 C   0  0  0  0  0  0  0  0  0  0  0  0
    1.4195    0.2917    3.6248 C   0  0  0  0  0  0  0  0  0  0  0  0
    2.4852    1.2159    3.0850 C   0  0  0  0  0  0  0  0  0  0  0  0
    3.2080    0.9078    1.9059 C   0  0  0  0  0  0  0  0  0  0  0  0
    4.2297    1.7730    1.4787 C   0  0  0  0  0  0  0  0  0  0  0  0
    4.5542    2.9088    2.2230 C   0  0  0  0  0  0  0  0  0  0  0  0
    3.8586    3.1980    3.3971 C   0  0  0  0  0  0  0  0  0  0  0  0
    2.8333    2.3544    3.8297 C   0  0  0  0  0  0  0  0  0  0  0  0
   -2.3356   -1.6606   -2.8074 C   0  0  0  0  0  0  0  0  0  0  0  0
   -2.0005   -1.5142   -4.3098 C   0  0  0  0  0  0  0  0  0  0  0  0
   -3.7642   -1.1211   -2.5642 C   0  0  0  0  0  0  0  0  0  0  0  0
   -2.3370   -3.1695   -2.4664 C   0  0  0  0  0  0  0  0  0  0  0  0
   -1.9826   -1.4664    2.0387 H   0  0  0  0  0  0  0  0  0  0  0  0
   -4.3331   -1.9055    2.6410 H   0  0  0  0  0  0  0  0  0  0  0  0
   -4.9142   -0.7212    1.4047 H   0  0  0  0  0  0  0  0  0  0  0  0
   -4.1000   -2.2562    0.9026 H   0  0  0  0  0  0  0  0  0  0  0  0
   -1.9279    1.0174    2.4110 H   0  0  0  0  0  0  0  0  0  0  0  0
   -1.8565   -0.6059    4.2085 H   0  0  0  0  0  0  0  0  0  0  0  0
   -3.6676   -0.4632    4.3002 H   0  0  0  0  0  0  0  0  0  0  0  0
   -2.6354    0.9606    4.6280 H   0  0  0  0  0  0  0  0  0  0  0  0
   -0.9341   -1.8284   -0.0037 H   0  0  0  0  0  0  0  0  0  0  0  0
   -0.3111   -1.5254   -2.1539 H   0  0  0  0  0  0  0  0  0  0  0  0
    0.2193    2.7923   -3.4955 H   0  0  0  0  0  0  0  0  0  0  0  0
    0.4064    2.9592   -1.6927 H   0  0  0  0  0  0  0  0  0  0  0  0
    2.5167    3.2515   -3.5360 H   0  0  0  0  0  0  0  0  0  0  0  0
    2.7173    2.7670   -1.8004 H   0  0  0  0  0  0  0  0  0  0  0  0
    3.7118    0.8698   -2.7856 H   0  0  0  0  0  0  0  0  0  0  0  0
    2.7309    1.0417   -4.2909 H   0  0  0  0  0  0  0  0  0  0  0  0
    1.4029   -0.6204   -3.4386 H   0  0  0  0  0  0  0  0  0  0  0  0
    1.6116    1.1356   -0.0954 H   0  0  0  0  0  0  0  0  0  0  0  0
    3.7749   -0.7553    0.6868 H   0  0  0  0  0  0  0  0  0  0  0  0
    1.5893   -2.0675    1.0804 H   0  0  0  0  0  0  0  0  0  0  0  0
    2.6683   -1.8672    2.4982 H   0  0  0  0  0  0  0  0  0  0  0  0
    0.2176   -0.0977    1.8577 H   0  0  0  0  0  0  0  0  0  0  0  0
    0.2571   -1.4443    3.0533 H   0  0  0  0  0  0  0  0  0  0  0  0
    1.8573   -0.3042    4.4547 H   0  0  0  0  0  0  0  0  0  0  0  0
    0.5758    0.8865    4.0382 H   0  0  0  0  0  0  0  0  0  0  0  0
    4.7695    1.5700    0.5617 H   0  0  0  0  0  0  0  0  0  0  0  0
    5.3446    3.5675    1.8869 H   0  0  0  0  0  0  0  0  0  0  0  0
    4.1157    4.0764    3.9749 H   0  0  0  0  0  0  0  0  0  0  0  0
    2.3105    2.5871    4.7494 H   0  0  0  0  0  0  0  0  0  0  0  0
   -2.0661   -0.4535   -4.6321 H   0  0  0  0  0  0  0  0  0  0  0  0
   -2.7109   -2.0999   -4.9328 H   0  0  0  0  0  0  0  0  0  0  0  0
   -0.9725   -1.8808   -4.5204 H   0  0  0  0  0  0  0  0  0  0  0  0
   -4.0926   -1.3046   -1.5217 H   0  0  0  0  0  0  0  0  0  0  0  0
   -4.4892   -1.6440   -3.2251 H   0  0  0  0  0  0  0  0  0  0  0  0
   -3.8472   -0.0403   -2.7871 H   0  0  0  0  0  0  0  0  0  0  0  0
   -1.3384   -3.6198   -2.6549 H   0  0  0  0  0  0  0  0  0  0  0  0
   -2.5974   -3.3340   -1.3987 H   0  0  0  0  0  0  0  0  0  0  0  0
   -3.0812   -3.7154   -3.0863 H   0  0  0  0  0  0  0  0  0  0  0  0
  1  2  1  0
  1  3  1  0
  3  4  1  0
  1  5  1  0
  5  6  2  0
  5  7  1  0
  7  8  1  0
  8  9  1  0
  9 10  2  0
  9 11  1  0
 11 12  1  0
 12 13  1  0
 13 14  1  0
 14 15  1  0
 15 16  1  0
 16 17  2  0
 16 18  1  0
 18 19  1  0
 19 20  1  0
 20 21  1  0
 21 22  1  0
 22 23  1  0
 23 24  2  0
 24 25  1  0
 25 26  2  0
 26 27  1  0
 27 28  2  0
  8 29  1  0
 29 30  1  0
 29 31  1  0
 29 32  1  0
 15 11  1  0
 24 19  1  0
 28 23  1  0
  1 33  1  1
  2 34  1  0
  2 35  1  0
  2 36  1  0
  3 37  1  0
  4 38  1  0
  4 39  1  0
  4 40  1  0
  7 41  1  0
  8 42  1  1
 12 43  1  0
 12 44  1  0
 13 45  1  0
 13 46  1  0
 14 47  1  0
 14 48  1  0
 15 49  1  6
 18 50  1  0
 19 51  1  6
 20 52  1  0
 20 53  1  0
 21 54  1  0
 21 55  1  0
 22 56  1  0
 22 57  1  0
 25 58  1  0
 26 59  1  0
 27 60  1  0
 28 61  1  0
 30 62  1  0
 30 63  1  0
 30 64  1  0
 31 65  1  0
 31 66  1  0
 31 67  1  0
 32 68  1  0
 32 69  1  0
 32 70  1  0
M  END
$$$$
