
     RDKit          3D

 60 60  0  0  0  0  0  0  0  0999 V2000
   -4.1676   -5.3466   -0.3045 C   0  0  0  0  0  0  0  0  0  0  0  0
   -3.3233   -4.3161    0.4394 C   0  0  0  0  0  0  0  0  0  0  0  0
   -3.2951   -2.9788   -0.3092 C   0  0  0  0  0  0  0  0  0  0  0  0
   -2.4454   -1.9470    0.4410 C   0  0  0  0  0  0  0  0  0  0  0  0
   -2.4159   -0.6088   -0.3050 C   0  0  0  0  0  0  0  0  0  0  0  0
   -1.5825    0.3640    0.4197 N   0  0  0  0  0  0  0  0  0  0  0  0
   -2.2258    1.4642    1.1528 C   0  0  0  0  0  0  0  0  0  0  0  0
   -1.9578    2.7979    0.4447 C   0  0  0  0  0  0  0  0  0  0  0  0
   -2.6441    3.9667    1.1529 C   0  0  0  0  0  0  0  0  0  0  0  0
   -2.0845    4.1377    2.4385 O   0  0  0  0  0  0  0  0  0  0  0  0
   -2.7356    5.2029    3.0932 C   0  0  0  0  0  0  0  0  0  0  0  0
   -0.1437    0.2290    0.4754 C   0  0  0  0  0  0  0  0  0  0  0  0
    0.4707    0.6378    1.4988 O   0  0  0  0  0  0  0  0  0  0  0  0
    0.6425   -0.3338   -0.6931 C   0  0  1  0  0  0  0  0  0  0  0  0
    0.6035    0.6315   -1.8977 C   0  0  0  0  0  0  0  0  0  0  0  0
    1.3419    0.0608   -3.1145 C   0  0  0  0  0  0  0  0  0  0  0  0
    1.2322    0.9948   -4.2775 C   0  0  0  0  0  0  0  0  0  0  0  0
    2.1568    2.0233   -4.4292 O   0  0  0  0  0  0  0  0  0  0  0  0
    0.2811    0.8764   -5.0956 O   0  0  0  0  0  0  0  0  0  0  0  0
    2.0218   -0.6787   -0.3076 N   0  0  0  0  0  0  0  0  0  0  0  0
    3.0291    0.2678    0.1032 C   0  0  0  0  0  0  0  0  0  0  0  0
    2.7833    1.5042    0.0756 O   0  0  0  0  0  0  0  0  0  0  0  0
    4.3662   -0.1889    0.5508 C   0  0  0  0  0  0  0  0  0  0  0  0
    5.4806    0.6572    0.4095 C   0  0  0  0  0  0  0  0  0  0  0  0
    6.7498    0.2437    0.8315 C   0  0  0  0  0  0  0  0  0  0  0  0
    8.1137    1.3340    0.6223 Cl  0  0  0  0  0  0  0  0  0  0  0  0
    6.9149   -1.0248    1.4104 C   0  0  0  0  0  0  0  0  0  0  0  0
    8.4913   -1.5816    1.9554 Cl  0  0  0  0  0  0  0  0  0  0  0  0
    5.8084   -1.8650    1.5660 C   0  0  0  0  0  0  0  0  0  0  0  0
    4.5421   -1.4520    1.1434 C   0  0  0  0  0  0  0  0  0  0  0  0
   -3.7474   -5.5321   -1.3160 H   0  0  0  0  0  0  0  0  0  0  0  0
   -4.1696   -6.3028    0.2600 H   0  0  0  0  0  0  0  0  0  0  0  0
   -5.2150   -4.9895   -0.4019 H   0  0  0  0  0  0  0  0  0  0  0  0
   -2.2883   -4.7085    0.5454 H   0  0  0  0  0  0  0  0  0  0  0  0
   -3.7496   -4.1680    1.4557 H   0  0  0  0  0  0  0  0  0  0  0  0
   -4.3336   -2.5941   -0.4147 H   0  0  0  0  0  0  0  0  0  0  0  0
   -2.8704   -3.1352   -1.3255 H   0  0  0  0  0  0  0  0  0  0  0  0
   -2.8688   -1.7843    1.4565 H   0  0  0  0  0  0  0  0  0  0  0  0
   -1.4101   -2.3357    0.5526 H   0  0  0  0  0  0  0  0  0  0  0  0
   -2.0401   -0.7468   -1.3396 H   0  0  0  0  0  0  0  0  0  0  0  0
   -3.4568   -0.2312   -0.4069 H   0  0  0  0  0  0  0  0  0  0  0  0
   -1.8419    1.4954    2.1955 H   0  0  0  0  0  0  0  0  0  0  0  0
   -3.3237    1.3024    1.2231 H   0  0  0  0  0  0  0  0  0  0  0  0
   -0.8636    2.9902    0.4009 H   0  0  0  0  0  0  0  0  0  0  0  0
   -2.3381    2.7361   -0.5983 H   0  0  0  0  0  0  0  0  0  0  0  0
   -3.7376    3.7591    1.2140 H   0  0  0  0  0  0  0  0  0  0  0  0
   -2.4845    4.8805    0.5360 H   0  0  0  0  0  0  0  0  0  0  0  0
   -2.6048    6.1586    2.5382 H   0  0  0  0  0  0  0  0  0  0  0  0
   -3.8165    4.9836    3.2415 H   0  0  0  0  0  0  0  0  0  0  0  0
   -2.2796    5.3326    4.0961 H   0  0  0  0  0  0  0  0  0  0  0  0
    0.1493   -1.2777   -1.0078 H   0  0  0  0  0  0  0  0  0  0  0  0
    1.0331    1.6183   -1.6268 H   0  0  0  0  0  0  0  0  0  0  0  0
   -0.4561    0.8133   -2.1817 H   0  0  0  0  0  0  0  0  0  0  0  0
    2.4169   -0.0856   -2.8753 H   0  0  0  0  0  0  0  0  0  0  0  0
    0.9098   -0.9260   -3.3904 H   0  0  0  0  0  0  0  0  0  0  0  0
    2.0870    2.6747   -5.2018 H   0  0  0  0  0  0  0  0  0  0  0  0
    2.2939   -1.6819   -0.4084 H   0  0  0  0  0  0  0  0  0  0  0  0
    5.3682    1.6364   -0.0403 H   0  0  0  0  0  0  0  0  0  0  0  0
    5.9270   -2.8397    2.0223 H   0  0  0  0  0  0  0  0  0  0  0  0
    3.7023   -2.1139    1.3069 H   0  0  0  0  0  0  0  0  0  0  0  0
  1  2  1  0
  2  3  1  0
  3  4  1  0
  4  5  1  0
  5  6  1  0
  6  7  1  0
  7  8  1  0
  8  9  1  0
  9 10  1  0
 10 11  1  0
  6 12  1  0
 12 13  2  0
 12 14  1  0
 14 15  1  0
 15 16  1  0
 16 17  1  0
 17 18  1  0
 17 19  2  0
 14 20  1  0
 20 21  1  0
 21 22  2  0
 21 23  1  0
 23 24  2  0
 24 25  1  0
 25 26  1  0
 25 27  2  0
 27 28  1  0
 27 29  1  0
 29 30  2  0
 30 23  1  0
  1 31  1  0
  1 32  1  0
  1 33  1  0
  2 34  1  0
  2 35  1  0
  3 36  1  0
  3 37  1  0
  4 38  1  0
  4 39  1  0
  5 40  1  0
  5 41  1  0
  7 42  1  0
  7 43  1  0
  8 44  1  0
  8 45  1  0
  9 46  1  0
  9 47  1  0
 11 48  1  0
 11 49  1  0
 11 50  1  0
 14 51  1  6
 15 52  1  0
 15 53  1  0
 16 54  1  0
 16 55  1  0
 18 56  1  0
 20 57  1  0
 24 58  1  0
 29 59  1  0
 30 60  1  0
M  END
$$$$
