
     RDKit          3D

 49 51  0  0  0  0  0  0  0  0999 V2000
   -1.5081    3.3435    1.0560 C   0  0  2  0  0  0  0  0  0  0  0  0
   -2.9694    3.5805    1.4512 C   0  0  0  0  0  0  0  0  0  0  0  0
   -1.0498    4.3844    0.0104 C   0  0  0  0  0  0  0  0  0  0  0  0
    0.4474    4.2347   -0.3046 C   0  0  0  0  0  0  0  0  0  0  0  0
    0.8204    2.7961   -0.5007 C   0  0  0  0  0  0  0  0  0  0  0  0
    0.0578    1.7166   -0.0608 C   0  0  0  0  0  0  0  0  0  0  0  0
   -1.3231    1.9122    0.5075 C   0  0  0  0  0  0  0  0  0  0  0  0
    0.7057    0.4741   -0.2225 C   0  0  0  0  0  0  0  0  0  0  0  0
    0.1745   -0.8030    0.2967 C   0  0  0  0  0  0  0  0  0  0  0  0
    0.8664   -1.4262    1.1478 O   0  0  0  0  0  0  0  0  0  0  0  0
   -1.0915   -1.3521   -0.1431 N   0  0  0  0  0  0  0  0  0  0  0  0
   -1.6811   -2.4613    0.6256 C   0  0  0  0  0  0  0  0  0  0  0  0
   -2.3450   -1.9357    1.8939 C   0  0  0  0  0  0  0  0  0  0  0  0
   -1.6130   -1.0523   -1.4900 C   0  0  0  0  0  0  0  0  0  0  0  0
   -3.1173   -0.7685   -1.4739 C   0  0  0  0  0  0  0  0  0  0  0  0
    1.9918    0.6156   -0.7582 C   0  0  0  0  0  0  0  0  0  0  0  0
    2.9505   -0.4287   -0.9715 N   0  0  0  0  0  0  0  0  0  0  0  0
    2.6054   -1.7075   -1.5239 C   0  0  0  0  0  0  0  0  0  0  0  0
    1.5261   -1.8488   -2.1595 O   0  0  0  0  0  0  0  0  0  0  0  0
    3.5139   -2.8579   -1.3882 C   0  0  0  0  0  0  0  0  0  0  0  0
    4.6847   -2.9095   -0.6378 C   0  0  0  0  0  0  0  0  0  0  0  0
    5.3208   -4.1559   -0.6910 C   0  0  0  0  0  0  0  0  0  0  0  0
    4.6568   -5.0898   -1.4752 C   0  0  0  0  0  0  0  0  0  0  0  0
    3.2760   -4.3638   -2.1010 S   0  0  0  0  0  0  0  0  0  0  0  0
    2.3205    2.2445   -1.0160 S   0  0  0  0  0  0  0  0  0  0  0  0
   -0.8840    3.4579    1.9710 H   0  0  0  0  0  0  0  0  0  0  0  0
   -3.2850    2.8339    2.2110 H   0  0  0  0  0  0  0  0  0  0  0  0
   -3.0866    4.5937    1.8910 H   0  0  0  0  0  0  0  0  0  0  0  0
   -3.6349    3.4946    0.5653 H   0  0  0  0  0  0  0  0  0  0  0  0
   -1.6363    4.2579   -0.9269 H   0  0  0  0  0  0  0  0  0  0  0  0
   -1.2327    5.4128    0.3915 H   0  0  0  0  0  0  0  0  0  0  0  0
    1.0422    4.6411    0.5414 H   0  0  0  0  0  0  0  0  0  0  0  0
    0.6969    4.8132   -1.2194 H   0  0  0  0  0  0  0  0  0  0  0  0
   -1.5103    1.1775    1.3199 H   0  0  0  0  0  0  0  0  0  0  0  0
   -2.0525    1.7400   -0.3095 H   0  0  0  0  0  0  0  0  0  0  0  0
   -0.8990   -3.2047    0.8922 H   0  0  0  0  0  0  0  0  0  0  0  0
   -2.4363   -3.0100    0.0249 H   0  0  0  0  0  0  0  0  0  0  0  0
   -2.7962   -2.7799    2.4563 H   0  0  0  0  0  0  0  0  0  0  0  0
   -3.1444   -1.2102    1.6346 H   0  0  0  0  0  0  0  0  0  0  0  0
   -1.5963   -1.4346    2.5429 H   0  0  0  0  0  0  0  0  0  0  0  0
   -1.1048   -0.1694   -1.9296 H   0  0  0  0  0  0  0  0  0  0  0  0
   -1.4098   -1.9136   -2.1620 H   0  0  0  0  0  0  0  0  0  0  0  0
   -3.6951   -1.7099   -1.3720 H   0  0  0  0  0  0  0  0  0  0  0  0
   -3.3854   -0.0930   -0.6370 H   0  0  0  0  0  0  0  0  0  0  0  0
   -3.4151   -0.2884   -2.4299 H   0  0  0  0  0  0  0  0  0  0  0  0
    3.9601   -0.1848   -0.8663 H   0  0  0  0  0  0  0  0  0  0  0  0
    5.0704   -2.0826   -0.0572 H   0  0  0  0  0  0  0  0  0  0  0  0
    6.2412   -4.3731   -0.1657 H   0  0  0  0  0  0  0  0  0  0  0  0
    4.9733   -6.1095   -1.6479 H   0  0  0  0  0  0  0  0  0  0  0  0
  1  2  1  0
  1  3  1  0
  3  4  1  0
  4  5  1  0
  5  6  2  0
  6  7  1  0
  6  8  1  0
  8  9  1  0
  9 10  2  0
  9 11  1  0
 11 12  1  0
 12 13  1  0
 11 14  1  0
 14 15  1  0
  8 16  2  0
 16 17  1  0
 17 18  1  0
 18 19  2  0
 18 20  1  0
 20 21  2  0
 21 22  1  0
 22 23  2  0
 23 24  1  0
 16 25  1  0
  7  1  1  0
 24 20  1  0
 25  5  1  0
  1 26  1  1
  2 27  1  0
  2 28  1  0
  2 29  1  0
  3 30  1  0
  3 31  1  0
  4 32  1  0
  4 33  1  0
  7 34  1  0
  7 35  1  0
 12 36  1  0
 12 37  1  0
 13 38  1  0
 13 39  1  0
 13 40  1  0
 14 41  1  0
 14 42  1  0
 15 43  1  0
 15 44  1  0
 15 45  1  0
 17 46  1  0
 21 47  1  0
 22 48  1  0
 23 49  1  0
M  END
$$$$
