
     RDKit          3D

 34 35  0  0  0  0  0  0  0  0999 V2000
    4.5553    1.5912    1.7408 C   0  0  0  0  0  0  0  0  0  0  0  0
    3.3038    1.4738    1.0723 O   0  0  0  0  0  0  0  0  0  0  0  0
    2.7368    0.2583    0.6624 C   0  0  0  0  0  0  0  0  0  0  0  0
    3.3785   -0.9925    0.8848 C   0  0  0  0  0  0  0  0  0  0  0  0
    2.7771   -2.1920    0.4627 C   0  0  0  0  0  0  0  0  0  0  0  0
    1.5439   -2.1140   -0.1791 C   0  0  0  0  0  0  0  0  0  0  0  0
    0.7985   -3.1341   -0.6393 N   0  0  0  0  0  0  0  0  0  0  0  0
   -0.3178   -2.5759   -1.1610 C   0  0  0  0  0  0  0  0  0  0  0  0
   -0.2686   -1.1906   -1.0397 C   0  0  0  0  0  0  0  0  0  0  0  0
   -1.3420   -0.2192   -1.4306 C   0  0  0  0  0  0  0  0  0  0  0  0
   -2.2252    0.1222   -0.2250 C   0  0  0  0  0  0  0  0  0  0  0  0
   -3.3327    1.0164   -0.6278 N   0  0  0  0  0  0  0  0  0  0  0  0
   -4.4703    0.8658    0.2942 C   0  0  0  0  0  0  0  0  0  0  0  0
   -2.8979    2.4248   -0.6390 C   0  0  0  0  0  0  0  0  0  0  0  0
    0.9234   -0.9131   -0.3999 C   0  0  0  0  0  0  0  0  0  0  0  0
    1.4884    0.2936    0.0107 C   0  0  0  0  0  0  0  0  0  0  0  0
    4.5250    1.0440    2.7067 H   0  0  0  0  0  0  0  0  0  0  0  0
    4.7578    2.6623    1.9457 H   0  0  0  0  0  0  0  0  0  0  0  0
    5.3694    1.1916    1.1000 H   0  0  0  0  0  0  0  0  0  0  0  0
    4.3362   -1.0448    1.3839 H   0  0  0  0  0  0  0  0  0  0  0  0
    3.2579   -3.1463    0.6350 H   0  0  0  0  0  0  0  0  0  0  0  0
    1.0244   -4.1525   -0.5918 H   0  0  0  0  0  0  0  0  0  0  0  0
   -1.1302   -3.1432   -1.5961 H   0  0  0  0  0  0  0  0  0  0  0  0
   -1.9681   -0.6646   -2.2338 H   0  0  0  0  0  0  0  0  0  0  0  0
   -0.8642    0.6950   -1.8386 H   0  0  0  0  0  0  0  0  0  0  0  0
   -1.6115    0.5781    0.5860 H   0  0  0  0  0  0  0  0  0  0  0  0
   -2.6262   -0.8397    0.1707 H   0  0  0  0  0  0  0  0  0  0  0  0
   -5.2990    1.5463    0.0011 H   0  0  0  0  0  0  0  0  0  0  0  0
   -4.8697   -0.1699    0.2412 H   0  0  0  0  0  0  0  0  0  0  0  0
   -4.1705    1.0875    1.3431 H   0  0  0  0  0  0  0  0  0  0  0  0
   -3.7307    3.0790   -0.9761 H   0  0  0  0  0  0  0  0  0  0  0  0
   -2.5678    2.7559    0.3712 H   0  0  0  0  0  0  0  0  0  0  0  0
   -2.0656    2.5727   -1.3570 H   0  0  0  0  0  0  0  0  0  0  0  0
    0.9818    1.2342   -0.1647 H   0  0  0  0  0  0  0  0  0  0  0  0
  1  2  1  0
  2  3  1  0
  3  4  2  0
  4  5  1  0
  5  6  2  0
  6  7  1  0
  7  8  1  0
  8  9  2  0
  9 10  1  0
 10 11  1  0
 11 12  1  0
 12 13  1  0
 12 14  1  0
  9 15  1  0
 15 16  2  0
 16  3  1  0
 15  6  1  0
  1 17  1  0
  1 18  1  0
  1 19  1  0
  4 20  1  0
  5 21  1  0
  7 22  1  0
  8 23  1  0
 10 24  1  0
 10 25  1  0
 11 26  1  0
 11 27  1  0
 13 28  1  0
 13 29  1  0
 13 30  1  0
 14 31  1  0
 14 32  1  0
 14 33  1  0
 16 34  1  0
M  END
$$$$
