
     RDKit          3D

 41 40  0  0  0  0  0  0  0  0999 V2000
   -4.9006    0.8711    1.8356 N   0  0  0  0  0  0  0  0  0  0  0  0
   -4.7847    1.1114    0.3945 C   0  0  0  0  0  0  0  0  0  0  0  0
   -3.3956    0.7154   -0.1529 C   0  0  0  0  0  0  0  0  0  0  0  0
   -2.2705    1.5888    0.4167 C   0  0  0  0  0  0  0  0  0  0  0  0
   -0.9643    1.2483   -0.2349 C   0  0  0  0  0  0  0  0  0  0  0  0
   -0.5489    1.9492   -1.1976 O   0  0  0  0  0  0  0  0  0  0  0  0
   -0.2158    0.1067    0.2071 N   0  0  0  0  0  0  0  0  0  0  0  0
    1.0593   -0.2739   -0.4085 C   0  0  0  0  0  0  0  0  0  0  0  0
    1.4502   -1.6993    0.0107 C   0  0  0  0  0  0  0  0  0  0  0  0
    2.9259   -2.2677   -0.9107 S   0  0  0  0  0  0  0  0  0  0  0  0
    3.1165   -3.8397   -0.0042 C   0  0  0  0  0  0  0  0  0  0  0  0
    2.1232   -4.7472   -0.3956 O   0  0  0  0  0  0  0  0  0  0  0  0
    2.1307    0.7063   -0.0063 C   0  0  0  0  0  0  0  0  0  0  0  0
    2.2724    1.0105    1.2100 O   0  0  0  0  0  0  0  0  0  0  0  0
    3.0080    1.2630   -0.9960 N   0  0  0  0  0  0  0  0  0  0  0  0
    4.1360    2.1215   -0.6463 C   0  0  0  0  0  0  0  0  0  0  0  0
    5.2221    1.3112   -0.0148 C   0  0  0  0  0  0  0  0  0  0  0  0
    5.4173    1.3634    1.3616 O   0  0  0  0  0  0  0  0  0  0  0  0
    5.9396    0.5573   -0.7251 O   0  0  0  0  0  0  0  0  0  0  0  0
   -5.8536    0.3364   -0.3196 C   0  0  0  0  0  0  0  0  0  0  0  0
   -5.9716   -1.0362   -0.1193 O   0  0  0  0  0  0  0  0  0  0  0  0
   -6.6339    0.9232   -1.1167 O   0  0  0  0  0  0  0  0  0  0  0  0
   -4.3539    1.5987    2.3499 H   0  0  0  0  0  0  0  0  0  0  0  0
   -4.4956   -0.0635    2.0755 H   0  0  0  0  0  0  0  0  0  0  0  0
   -4.9507    2.1955    0.1991 H   0  0  0  0  0  0  0  0  0  0  0  0
   -3.4048    0.8296   -1.2605 H   0  0  0  0  0  0  0  0  0  0  0  0
   -3.1880   -0.3538    0.0754 H   0  0  0  0  0  0  0  0  0  0  0  0
   -2.5011    2.6630    0.2448 H   0  0  0  0  0  0  0  0  0  0  0  0
   -2.1745    1.4267    1.5111 H   0  0  0  0  0  0  0  0  0  0  0  0
   -0.6008   -0.4644    0.9943 H   0  0  0  0  0  0  0  0  0  0  0  0
    0.9325   -0.2673   -1.5138 H   0  0  0  0  0  0  0  0  0  0  0  0
    1.6489   -1.7314    1.1042 H   0  0  0  0  0  0  0  0  0  0  0  0
    0.6058   -2.3845   -0.2160 H   0  0  0  0  0  0  0  0  0  0  0  0
    4.1058   -4.2680   -0.2656 H   0  0  0  0  0  0  0  0  0  0  0  0
    3.1066   -3.6675    1.0964 H   0  0  0  0  0  0  0  0  0  0  0  0
    1.3683   -4.6385    0.2390 H   0  0  0  0  0  0  0  0  0  0  0  0
    2.8488    1.0392   -2.0043 H   0  0  0  0  0  0  0  0  0  0  0  0
    3.8017    2.9271    0.0423 H   0  0  0  0  0  0  0  0  0  0  0  0
    4.5334    2.6033   -1.5656 H   0  0  0  0  0  0  0  0  0  0  0  0
    6.1394    0.8085    1.8052 H   0  0  0  0  0  0  0  0  0  0  0  0
   -6.6833   -1.5723   -0.6012 H   0  0  0  0  0  0  0  0  0  0  0  0
  1  2  1  0
  2  3  1  0
  3  4  1  0
  4  5  1  0
  5  6  2  0
  5  7  1  0
  7  8  1  0
  8  9  1  0
  9 10  1  0
 10 11  1  0
 11 12  1  0
  8 13  1  0
 13 14  2  0
 13 15  1  0
 15 16  1  0
 16 17  1  0
 17 18  1  0
 17 19  2  0
  2 20  1  0
 20 21  1  0
 20 22  2  0
  1 23  1  0
  1 24  1  0
  2 25  1  0
  3 26  1  0
  3 27  1  0
  4 28  1  0
  4 29  1  0
  7 30  1  0
  8 31  1  0
  9 32  1  0
  9 33  1  0
 11 34  1  0
 11 35  1  0
 12 36  1  0
 15 37  1  0
 16 38  1  0
 16 39  1  0
 18 40  1  0
 21 41  1  0
M  END
$$$$
