
     RDKit          3D

 56 59  0  0  0  0  0  0  0  0999 V2000
   -3.9237    1.4764    2.4309 C   0  0  2  0  0  0  0  0  0  0  0  0
   -3.6617    1.1941    3.7606 F   0  0  0  0  0  0  0  0  0  0  0  0
   -4.5832    0.2682    1.7647 C   0  0  0  0  0  0  0  0  0  0  0  0
   -3.5771   -0.8977    1.6017 C   0  0  2  0  0  0  0  0  0  0  0  0
   -2.3914   -0.3943    0.7331 C   0  0  0  0  0  0  0  0  0  0  0  0
   -1.8897    0.9967    1.0669 C   0  0  0  0  0  0  0  0  0  0  0  0
   -2.6445    1.8679    1.7566 C   0  0  0  0  0  0  0  0  0  0  0  0
   -0.5968    1.4239    0.4784 C   0  0  0  0  0  0  0  0  0  0  0  0
   -0.2456    0.9364   -0.6305 O   0  0  0  0  0  0  0  0  0  0  0  0
    0.2553    2.3711    1.1512 N   0  0  0  0  0  0  0  0  0  0  0  0
    1.5553    2.7565    0.6736 C   0  0  0  0  0  0  0  0  0  0  0  0
    1.9702    4.0868    0.8143 C   0  0  0  0  0  0  0  0  0  0  0  0
    3.2325    4.4848    0.3711 C   0  0  0  0  0  0  0  0  0  0  0  0
    4.1079    3.5554   -0.1995 C   0  0  0  0  0  0  0  0  0  0  0  0
    5.6790    4.1186   -0.7613 Cl  0  0  0  0  0  0  0  0  0  0  0  0
    3.7228    2.2028   -0.3099 C   0  0  0  0  0  0  0  0  0  0  0  0
    4.6422    1.1806   -0.9224 C   0  0  0  0  0  0  0  0  0  0  0  0
    4.6758    1.3659   -2.3348 O   0  0  0  0  0  0  0  0  0  0  0  0
    5.4531    0.6007   -3.2159 C   0  0  0  0  0  0  0  0  0  0  0  0
    5.4009    0.8918   -4.5836 C   0  0  0  0  0  0  0  0  0  0  0  0
    6.1409    0.1720   -5.4691 N   0  0  0  0  0  0  0  0  0  0  0  0
    6.9486   -0.8438   -5.0651 C   0  0  0  0  0  0  0  0  0  0  0  0
    7.0342   -1.1721   -3.7112 C   0  0  0  0  0  0  0  0  0  0  0  0
    6.2844   -0.4481   -2.7822 C   0  0  0  0  0  0  0  0  0  0  0  0
    2.4436    1.8146    0.1257 C   0  0  0  0  0  0  0  0  0  0  0  0
   -4.2294   -2.0966    0.9856 N   0  0  0  0  0  0  0  0  0  0  0  0
   -5.4020   -2.5492    1.7813 C   0  0  0  0  0  0  0  0  0  0  0  0
   -5.8106   -3.9972    1.4590 C   0  0  0  0  0  0  0  0  0  0  0  0
   -5.3793   -4.3448    0.1641 O   0  0  0  0  0  0  0  0  0  0  0  0
   -3.9675   -4.4328    0.1469 C   0  0  0  0  0  0  0  0  0  0  0  0
   -3.2792   -3.2218    0.8180 C   0  0  0  0  0  0  0  0  0  0  0  0
   -4.6269    2.3358    2.3912 H   0  0  0  0  0  0  0  0  0  0  0  0
   -4.9839    0.5605    0.7687 H   0  0  0  0  0  0  0  0  0  0  0  0
   -5.4386   -0.0200    2.4090 H   0  0  0  0  0  0  0  0  0  0  0  0
   -3.1816   -1.1659    2.6090 H   0  0  0  0  0  0  0  0  0  0  0  0
   -2.6941   -0.4055   -0.3369 H   0  0  0  0  0  0  0  0  0  0  0  0
   -1.5290   -1.0816    0.8627 H   0  0  0  0  0  0  0  0  0  0  0  0
   -2.3128    2.8874    1.9025 H   0  0  0  0  0  0  0  0  0  0  0  0
   -0.0937    2.8511    2.0099 H   0  0  0  0  0  0  0  0  0  0  0  0
    1.3054    4.8200    1.2538 H   0  0  0  0  0  0  0  0  0  0  0  0
    3.5293    5.5213    0.4698 H   0  0  0  0  0  0  0  0  0  0  0  0
    5.6633    1.2963   -0.4992 H   0  0  0  0  0  0  0  0  0  0  0  0
    4.2934    0.1502   -0.6918 H   0  0  0  0  0  0  0  0  0  0  0  0
    4.7696    1.6936   -4.9435 H   0  0  0  0  0  0  0  0  0  0  0  0
    7.5242   -1.3967   -5.7953 H   0  0  0  0  0  0  0  0  0  0  0  0
    7.6759   -1.9803   -3.3849 H   0  0  0  0  0  0  0  0  0  0  0  0
    6.3572   -0.7101   -1.7356 H   0  0  0  0  0  0  0  0  0  0  0  0
    2.1529    0.7741    0.0624 H   0  0  0  0  0  0  0  0  0  0  0  0
   -6.2711   -1.9041    1.5301 H   0  0  0  0  0  0  0  0  0  0  0  0
   -5.2045   -2.4703    2.8746 H   0  0  0  0  0  0  0  0  0  0  0  0
   -5.3985   -4.7000    2.2208 H   0  0  0  0  0  0  0  0  0  0  0  0
   -6.9166   -4.0901    1.5053 H   0  0  0  0  0  0  0  0  0  0  0  0
   -3.6469   -4.4889   -0.9155 H   0  0  0  0  0  0  0  0  0  0  0  0
   -3.6386   -5.3788    0.6319 H   0  0  0  0  0  0  0  0  0  0  0  0
   -2.8671   -3.5266    1.8070 H   0  0  0  0  0  0  0  0  0  0  0  0
   -2.4323   -2.9380    0.1619 H   0  0  0  0  0  0  0  0  0  0  0  0
  1  2  1  0
  1  3  1  0
  3  4  1  0
  4  5  1  0
  5  6  1  0
  6  7  2  0
  6  8  1  0
  8  9  2  0
  8 10  1  0
 10 11  1  0
 11 12  2  0
 12 13  1  0
 13 14  2  0
 14 15  1  0
 14 16  1  0
 16 17  1  0
 17 18  1  0
 18 19  1  0
 19 20  2  0
 20 21  1  0
 21 22  2  0
 22 23  1  0
 23 24  2  0
 16 25  2  0
  4 26  1  0
 26 27  1  0
 27 28  1  0
 28 29  1  0
 29 30  1  0
 30 31  1  0
  7  1  1  0
 25 11  1  0
 31 26  1  0
 24 19  1  0
  1 32  1  1
  3 33  1  0
  3 34  1  0
  4 35  1  1
  5 36  1  0
  5 37  1  0
  7 38  1  0
 10 39  1  0
 12 40  1  0
 13 41  1  0
 17 42  1  0
 17 43  1  0
 20 44  1  0
 22 45  1  0
 23 46  1  0
 24 47  1  0
 25 48  1  0
 27 49  1  0
 27 50  1  0
 28 51  1  0
 28 52  1  0
 30 53  1  0
 30 54  1  0
 31 55  1  0
 31 56  1  0
M  END
$$$$
