
     RDKit          3D

 51 53  0  0  0  0  0  0  0  0999 V2000
    5.9519    4.1807    1.5821 N   0  0  0  0  0  0  0  0  0  0  0  0
    5.4479    2.8532    1.4352 C   0  0  0  0  0  0  0  0  0  0  0  0
    4.6541    2.3224    2.4057 N   0  0  0  0  0  0  0  0  0  0  0  0
    4.1557    1.0630    2.3015 C   0  0  0  0  0  0  0  0  0  0  0  0
    3.4234    0.6020    3.2168 O   0  0  0  0  0  0  0  0  0  0  0  0
    4.4615    0.2931    1.1775 C   0  0  0  0  0  0  0  0  0  0  0  0
    3.9874   -0.9716    1.0233 N   0  0  0  0  0  0  0  0  0  0  0  0
    4.2912   -1.7069   -0.0810 C   0  0  0  0  0  0  0  0  0  0  0  0
    3.7386   -3.0936   -0.2334 C   0  0  0  0  0  0  0  0  0  0  0  0
    2.8259   -3.1592   -1.3754 N   0  0  0  0  0  0  0  0  0  0  0  0
    1.5447   -2.5017   -1.4347 C   0  0  0  0  0  0  0  0  0  0  0  0
    0.8565   -2.4543   -2.6558 C   0  0  0  0  0  0  0  0  0  0  0  0
   -0.3845   -1.8189   -2.7505 C   0  0  0  0  0  0  0  0  0  0  0  0
   -0.9718   -1.2264   -1.6200 C   0  0  0  0  0  0  0  0  0  0  0  0
   -0.2815   -1.2697   -0.3963 C   0  0  0  0  0  0  0  0  0  0  0  0
    0.9601   -1.9051   -0.3025 C   0  0  0  0  0  0  0  0  0  0  0  0
   -2.2848   -0.5474   -1.7359 C   0  0  0  0  0  0  0  0  0  0  0  0
   -2.6564   -0.1092   -2.8593 O   0  0  0  0  0  0  0  0  0  0  0  0
   -3.1459   -0.3940   -0.5946 N   0  0  0  0  0  0  0  0  0  0  0  0
   -4.3494    0.4438   -0.6386 C   0  0  1  0  0  0  0  0  0  0  0  0
   -5.2376    0.1733    0.5927 C   0  0  0  0  0  0  0  0  0  0  0  0
   -6.5947    0.8840    0.4988 C   0  0  0  0  0  0  0  0  0  0  0  0
   -7.4409    0.5529    1.6870 C   0  0  0  0  0  0  0  0  0  0  0  0
   -7.3326    1.3125    2.8476 O   0  0  0  0  0  0  0  0  0  0  0  0
   -8.2209   -0.4361    1.6513 O   0  0  0  0  0  0  0  0  0  0  0  0
   -3.9517    1.8924   -0.7072 C   0  0  0  0  0  0  0  0  0  0  0  0
   -4.4830    2.7091   -1.7003 O   0  0  0  0  0  0  0  0  0  0  0  0
   -3.1518    2.3729    0.1406 O   0  0  0  0  0  0  0  0  0  0  0  0
    5.1106   -1.1466   -1.0731 C   0  0  0  0  0  0  0  0  0  0  0  0
    5.5855    0.1180   -0.9188 N   0  0  0  0  0  0  0  0  0  0  0  0
    5.2804    0.8530    0.1834 C   0  0  0  0  0  0  0  0  0  0  0  0
    5.7579    2.1183    0.3290 N   0  0  0  0  0  0  0  0  0  0  0  0
    5.7145    4.7437    2.4288 H   0  0  0  0  0  0  0  0  0  0  0  0
    6.5617    4.6044    0.8481 H   0  0  0  0  0  0  0  0  0  0  0  0
    4.5848   -3.7953   -0.3986 H   0  0  0  0  0  0  0  0  0  0  0  0
    3.2194   -3.4246    0.6912 H   0  0  0  0  0  0  0  0  0  0  0  0
    3.1558   -3.6836   -2.2177 H   0  0  0  0  0  0  0  0  0  0  0  0
    1.2862   -2.9066   -3.5409 H   0  0  0  0  0  0  0  0  0  0  0  0
   -0.8899   -1.8000   -3.7082 H   0  0  0  0  0  0  0  0  0  0  0  0
   -0.6843   -0.7942    0.4880 H   0  0  0  0  0  0  0  0  0  0  0  0
    1.4528   -1.9242    0.6585 H   0  0  0  0  0  0  0  0  0  0  0  0
   -2.9339   -0.9314    0.2761 H   0  0  0  0  0  0  0  0  0  0  0  0
   -4.9322    0.1795   -1.5492 H   0  0  0  0  0  0  0  0  0  0  0  0
   -5.4162   -0.9227    0.6662 H   0  0  0  0  0  0  0  0  0  0  0  0
   -4.7084    0.4949    1.5176 H   0  0  0  0  0  0  0  0  0  0  0  0
   -6.4484    1.9847    0.4607 H   0  0  0  0  0  0  0  0  0  0  0  0
   -7.1225    0.5719   -0.4288 H   0  0  0  0  0  0  0  0  0  0  0  0
   -7.8866    1.0914    3.6665 H   0  0  0  0  0  0  0  0  0  0  0  0
   -4.2313    3.6887   -1.7568 H   0  0  0  0  0  0  0  0  0  0  0  0
    5.3655   -1.7097   -1.9617 H   0  0  0  0  0  0  0  0  0  0  0  0
    6.3670    2.5290   -0.4147 H   0  0  0  0  0  0  0  0  0  0  0  0
  1  2  1  0
  2  3  2  0
  3  4  1  0
  4  5  2  0
  4  6  1  0
  6  7  2  0
  7  8  1  0
  8  9  1  0
  9 10  1  0
 10 11  1  0
 11 12  2  0
 12 13  1  0
 13 14  2  0
 14 15  1  0
 15 16  2  0
 14 17  1  0
 17 18  2  0
 17 19  1  0
 19 20  1  0
 20 21  1  0
 21 22  1  0
 22 23  1  0
 23 24  1  0
 23 25  2  0
 20 26  1  0
 26 27  1  0
 26 28  2  0
  8 29  2  0
 29 30  1  0
 30 31  2  0
 31 32  1  0
 32  2  1  0
 31  6  1  0
 16 11  1  0
  1 33  1  0
  1 34  1  0
  9 35  1  0
  9 36  1  0
 10 37  1  0
 12 38  1  0
 13 39  1  0
 15 40  1  0
 16 41  1  0
 19 42  1  0
 20 43  1  6
 21 44  1  0
 21 45  1  0
 22 46  1  0
 22 47  1  0
 24 48  1  0
 27 49  1  0
 29 50  1  0
 32 51  1  0
M  END
$$$$
