
     RDKit          3D

 37 38  0  0  0  0  0  0  0  0999 V2000
   -4.4627    1.9503   -3.5358 C   0  0  0  0  0  0  0  0  0  0  0  0
   -3.9175    1.6865   -2.1635 C   0  0  0  0  0  0  0  0  0  0  0  0
   -4.7580    1.7504   -1.0440 C   0  0  0  0  0  0  0  0  0  0  0  0
   -4.2259    1.5305    0.2323 C   0  0  0  0  0  0  0  0  0  0  0  0
   -5.0676    1.5739    1.3847 N   0  0  0  0  0  0  0  0  0  0  0  0
   -2.8978    1.2744    0.3764 N   0  0  0  0  0  0  0  0  0  0  0  0
   -2.0504    1.2337   -0.6879 C   0  0  0  0  0  0  0  0  0  0  0  0
   -0.5997    0.9188   -0.4673 C   0  0  0  0  0  0  0  0  0  0  0  0
   -0.3529   -0.5872   -0.5847 C   0  0  0  0  0  0  0  0  0  0  0  0
    1.0633   -0.8898   -0.3873 N   0  0  0  0  0  0  0  0  0  0  0  0
    1.6679   -0.9269    0.9168 C   0  0  0  0  0  0  0  0  0  0  0  0
    0.9890   -0.5965    1.9277 O   0  0  0  0  0  0  0  0  0  0  0  0
    3.0828   -1.3328    1.0966 C   0  0  0  0  0  0  0  0  0  0  0  0
    3.7180   -2.1920    0.1802 C   0  0  0  0  0  0  0  0  0  0  0  0
    5.0515   -2.5689    0.3688 C   0  0  0  0  0  0  0  0  0  0  0  0
    5.7658   -2.0987    1.4763 C   0  0  0  0  0  0  0  0  0  0  0  0
    5.1399   -1.2542    2.3995 C   0  0  0  0  0  0  0  0  0  0  0  0
    3.8065   -0.8768    2.2139 C   0  0  0  0  0  0  0  0  0  0  0  0
    7.1381   -2.4883    1.6688 C   0  0  0  0  0  0  0  0  0  0  0  0
    8.2414   -2.8015    1.8236 N   0  0  0  0  0  0  0  0  0  0  0  0
   -2.5507    1.4369   -1.9818 C   0  0  0  0  0  0  0  0  0  0  0  0
   -4.3966    3.0361   -3.7566 H   0  0  0  0  0  0  0  0  0  0  0  0
   -3.8854    1.3889   -4.3011 H   0  0  0  0  0  0  0  0  0  0  0  0
   -5.5243    1.6304   -3.6041 H   0  0  0  0  0  0  0  0  0  0  0  0
   -5.8135    1.9637   -1.1630 H   0  0  0  0  0  0  0  0  0  0  0  0
   -4.6668    1.4094    2.3347 H   0  0  0  0  0  0  0  0  0  0  0  0
   -6.0899    1.7689    1.2966 H   0  0  0  0  0  0  0  0  0  0  0  0
    0.0237    1.4582   -1.2138 H   0  0  0  0  0  0  0  0  0  0  0  0
   -0.2984    1.2750    0.5410 H   0  0  0  0  0  0  0  0  0  0  0  0
   -0.6569   -0.9285   -1.5988 H   0  0  0  0  0  0  0  0  0  0  0  0
   -0.9651   -1.1431    0.1593 H   0  0  0  0  0  0  0  0  0  0  0  0
    1.6430   -1.0636   -1.2379 H   0  0  0  0  0  0  0  0  0  0  0  0
    3.1842   -2.5973   -0.6685 H   0  0  0  0  0  0  0  0  0  0  0  0
    5.5230   -3.2328   -0.3460 H   0  0  0  0  0  0  0  0  0  0  0  0
    5.6821   -0.8869    3.2627 H   0  0  0  0  0  0  0  0  0  0  0  0
    3.3442   -0.2182    2.9390 H   0  0  0  0  0  0  0  0  0  0  0  0
   -1.8841    1.3978   -2.8354 H   0  0  0  0  0  0  0  0  0  0  0  0
  1  2  1  0
  2  3  2  0
  3  4  1  0
  4  5  1  0
  4  6  2  0
  6  7  1  0
  7  8  1  0
  8  9  1  0
  9 10  1  0
 10 11  1  0
 11 12  2  0
 11 13  1  0
 13 14  2  0
 14 15  1  0
 15 16  2  0
 16 17  1  0
 17 18  2  0
 16 19  1  0
 19 20  3  0
  7 21  2  0
 21  2  1  0
 18 13  1  0
  1 22  1  0
  1 23  1  0
  1 24  1  0
  3 25  1  0
  5 26  1  0
  5 27  1  0
  8 28  1  0
  8 29  1  0
  9 30  1  0
  9 31  1  0
 10 32  1  0
 14 33  1  0
 15 34  1  0
 17 35  1  0
 18 36  1  0
 21 37  1  0
M  END
$$$$
