
     RDKit          3D

 51 52  0  0  0  0  0  0  0  0999 V2000
    5.3126   -1.0890    1.5737 N   0  0  0  0  0  0  0  0  0  0  0  0
    4.5874   -0.1993    0.7608 N   0  0  0  0  0  0  0  0  0  0  0  0
    4.6636   -0.3893   -0.6895 C   0  0  0  0  0  0  0  0  0  0  0  0
    3.4671   -1.1355   -1.1878 C   0  0  0  0  0  0  0  0  0  0  0  0
    3.0683   -2.3091   -0.5561 O   0  0  0  0  0  0  0  0  0  0  0  0
    2.8502   -0.7291   -2.2082 O   0  0  0  0  0  0  0  0  0  0  0  0
    3.8573    0.8903    1.3712 C   0  0  0  0  0  0  0  0  0  0  0  0
    4.0811    1.1761    2.5790 O   0  0  0  0  0  0  0  0  0  0  0  0
    2.8209    1.7023    0.6265 C   0  0  0  0  0  0  0  0  0  0  0  0
    1.3966    1.5125    1.1901 C   0  0  0  0  0  0  0  0  0  0  0  0
    1.3532    1.8587    2.5518 O   0  0  0  0  0  0  0  0  0  0  0  0
    0.9286    0.0820    1.0245 C   0  0  0  0  0  0  0  0  0  0  0  0
    1.2659   -0.7500    1.9118 O   0  0  0  0  0  0  0  0  0  0  0  0
    0.1481   -0.3684   -0.1148 N   0  0  0  0  0  0  0  0  0  0  0  0
   -0.1126    0.4893   -1.2862 C   0  0  0  0  0  0  0  0  0  0  0  0
   -1.5230    1.0330   -1.2799 C   0  0  0  0  0  0  0  0  0  0  0  0
   -2.0918    1.5743   -0.1114 C   0  0  0  0  0  0  0  0  0  0  0  0
   -3.4035    2.0572   -0.1218 C   0  0  0  0  0  0  0  0  0  0  0  0
   -4.1541    2.0216   -1.2988 C   0  0  0  0  0  0  0  0  0  0  0  0
   -3.5925    1.5071   -2.4695 C   0  0  0  0  0  0  0  0  0  0  0  0
   -2.2820    1.0202   -2.4637 C   0  0  0  0  0  0  0  0  0  0  0  0
   -0.4319   -1.7244   -0.1109 C   0  0  0  0  0  0  0  0  0  0  0  0
   -1.8548   -1.6938    0.3821 C   0  0  0  0  0  0  0  0  0  0  0  0
   -2.9237   -1.8316   -0.5206 C   0  0  0  0  0  0  0  0  0  0  0  0
   -4.2436   -1.7360   -0.0702 C   0  0  0  0  0  0  0  0  0  0  0  0
   -4.5070   -1.5074    1.2827 C   0  0  0  0  0  0  0  0  0  0  0  0
   -3.4506   -1.3765    2.1879 C   0  0  0  0  0  0  0  0  0  0  0  0
   -2.1288   -1.4690    1.7415 C   0  0  0  0  0  0  0  0  0  0  0  0
    4.6436   -1.5192    2.2526 H   0  0  0  0  0  0  0  0  0  0  0  0
    6.0151   -0.5344    2.1142 H   0  0  0  0  0  0  0  0  0  0  0  0
    4.7783    0.5889   -1.2042 H   0  0  0  0  0  0  0  0  0  0  0  0
    5.5656   -0.9879   -0.9403 H   0  0  0  0  0  0  0  0  0  0  0  0
    2.2814   -2.8437   -0.9031 H   0  0  0  0  0  0  0  0  0  0  0  0
    3.0975    2.7754    0.7096 H   0  0  0  0  0  0  0  0  0  0  0  0
    2.8127    1.4705   -0.4548 H   0  0  0  0  0  0  0  0  0  0  0  0
    0.7121    2.1967    0.6456 H   0  0  0  0  0  0  0  0  0  0  0  0
    1.4423    2.8466    2.6033 H   0  0  0  0  0  0  0  0  0  0  0  0
    0.6058    1.3274   -1.3588 H   0  0  0  0  0  0  0  0  0  0  0  0
    0.0596   -0.1081   -2.2080 H   0  0  0  0  0  0  0  0  0  0  0  0
   -1.5386    1.5972    0.8166 H   0  0  0  0  0  0  0  0  0  0  0  0
   -3.8398    2.4549    0.7853 H   0  0  0  0  0  0  0  0  0  0  0  0
   -5.1702    2.3941   -1.3041 H   0  0  0  0  0  0  0  0  0  0  0  0
   -4.1737    1.4836   -3.3822 H   0  0  0  0  0  0  0  0  0  0  0  0
   -1.8649    0.6224   -3.3804 H   0  0  0  0  0  0  0  0  0  0  0  0
    0.1624   -2.4149    0.5245 H   0  0  0  0  0  0  0  0  0  0  0  0
   -0.3854   -2.1572   -1.1342 H   0  0  0  0  0  0  0  0  0  0  0  0
   -2.7358   -1.9928   -1.5748 H   0  0  0  0  0  0  0  0  0  0  0  0
   -5.0622   -1.8322   -0.7716 H   0  0  0  0  0  0  0  0  0  0  0  0
   -5.5293   -1.4304    1.6293 H   0  0  0  0  0  0  0  0  0  0  0  0
   -3.6558   -1.1979    3.2355 H   0  0  0  0  0  0  0  0  0  0  0  0
   -1.3217   -1.3555    2.4531 H   0  0  0  0  0  0  0  0  0  0  0  0
  1  2  1  0
  2  3  1  0
  3  4  1  0
  4  5  1  0
  4  6  2  0
  2  7  1  0
  7  8  2  0
  7  9  1  0
  9 10  1  0
 10 11  1  0
 10 12  1  0
 12 13  2  0
 12 14  1  0
 14 15  1  0
 15 16  1  0
 16 17  2  0
 17 18  1  0
 18 19  2  0
 19 20  1  0
 20 21  2  0
 14 22  1  0
 22 23  1  0
 23 24  2  0
 24 25  1  0
 25 26  2  0
 26 27  1  0
 27 28  2  0
 21 16  1  0
 28 23  1  0
  1 29  1  0
  1 30  1  0
  3 31  1  0
  3 32  1  0
  5 33  1  0
  9 34  1  0
  9 35  1  0
 10 36  1  0
 11 37  1  0
 15 38  1  0
 15 39  1  0
 17 40  1  0
 18 41  1  0
 19 42  1  0
 20 43  1  0
 21 44  1  0
 22 45  1  0
 22 46  1  0
 24 47  1  0
 25 48  1  0
 26 49  1  0
 27 50  1  0
 28 51  1  0
M  END
$$$$
