
     RDKit          3D

 43 45  0  0  0  0  0  0  0  0999 V2000
    6.3952   -0.7112    1.7151 N   0  0  0  0  0  0  0  0  0  0  0  0
    6.2275    0.7277    0.7723 S   0  0  0  0  0  6  0  0  0  0  0  0
    7.2287    0.7121   -0.3486 O   0  0  0  0  0  0  0  0  0  0  0  0
    6.4930    1.9277    1.6376 O   0  0  0  0  0  0  0  0  0  0  0  0
    4.5967    0.8164    0.1139 C   0  0  0  0  0  0  0  0  0  0  0  0
    3.5761    1.4425    0.8416 C   0  0  0  0  0  0  0  0  0  0  0  0
    2.2777    1.4988    0.3267 C   0  0  0  0  0  0  0  0  0  0  0  0
    1.9853    0.9276   -0.9216 C   0  0  0  0  0  0  0  0  0  0  0  0
    0.5807    0.9715   -1.4578 C   0  0  0  0  0  0  0  0  0  0  0  0
   -0.2863    0.0936   -0.6765 N   0  0  0  0  0  0  0  0  0  0  0  0
   -0.2738   -1.3338   -0.8284 C   0  0  0  0  0  0  0  0  0  0  0  0
    0.6202   -1.8854   -1.5255 O   0  0  0  0  0  0  0  0  0  0  0  0
   -1.2715   -2.1777   -0.1450 C   0  0  0  0  0  0  0  0  0  0  0  0
   -2.5640   -1.8677    0.2561 C   0  0  0  0  0  0  0  0  0  0  0  0
   -3.0784   -2.9412    0.8859 N   0  0  0  0  0  0  0  0  0  0  0  0
   -2.1877   -3.9198    0.8994 N   0  0  0  0  0  0  0  0  0  0  0  0
   -1.0781   -3.4809    0.2742 C   0  0  0  0  0  0  0  0  0  0  0  0
   -3.3383   -0.6431   -0.0421 C   0  0  0  0  0  0  0  0  0  0  0  0
   -3.3270   -0.1059   -1.3403 C   0  0  0  0  0  0  0  0  0  0  0  0
   -4.0572    1.0485   -1.6385 C   0  0  0  0  0  0  0  0  0  0  0  0
   -4.0096    1.7023   -3.2682 Cl  0  0  0  0  0  0  0  0  0  0  0  0
   -4.8199    1.6721   -0.6430 C   0  0  0  0  0  0  0  0  0  0  0  0
   -5.5489    2.8221   -0.9421 O   0  0  0  0  0  0  0  0  0  0  0  0
   -4.8459    1.1347    0.6506 C   0  0  0  0  0  0  0  0  0  0  0  0
   -4.1087   -0.0181    0.9568 C   0  0  0  0  0  0  0  0  0  0  0  0
   -4.1273   -0.5307    2.2540 O   0  0  0  0  0  0  0  0  0  0  0  0
    3.0072    0.2905   -1.6433 C   0  0  0  0  0  0  0  0  0  0  0  0
    4.3053    0.2348   -1.1271 C   0  0  0  0  0  0  0  0  0  0  0  0
    6.1616   -1.5145    1.0895 H   0  0  0  0  0  0  0  0  0  0  0  0
    5.6566   -0.6799    2.4532 H   0  0  0  0  0  0  0  0  0  0  0  0
    3.7830    1.8824    1.8089 H   0  0  0  0  0  0  0  0  0  0  0  0
    1.4982    1.9832    0.9021 H   0  0  0  0  0  0  0  0  0  0  0  0
    0.2023    2.0146   -1.3896 H   0  0  0  0  0  0  0  0  0  0  0  0
    0.5418    0.6818   -2.5307 H   0  0  0  0  0  0  0  0  0  0  0  0
   -0.9025    0.5297    0.0451 H   0  0  0  0  0  0  0  0  0  0  0  0
   -4.0438   -3.0290    1.2738 H   0  0  0  0  0  0  0  0  0  0  0  0
   -0.1796   -4.0701    0.1461 H   0  0  0  0  0  0  0  0  0  0  0  0
   -2.7550   -0.5876   -2.1239 H   0  0  0  0  0  0  0  0  0  0  0  0
   -6.1087    3.2927   -0.2406 H   0  0  0  0  0  0  0  0  0  0  0  0
   -5.4348    1.6170    1.4207 H   0  0  0  0  0  0  0  0  0  0  0  0
   -4.6701   -0.0946    2.9902 H   0  0  0  0  0  0  0  0  0  0  0  0
    2.7996   -0.1671   -2.6025 H   0  0  0  0  0  0  0  0  0  0  0  0
    5.0804   -0.2660   -1.6931 H   0  0  0  0  0  0  0  0  0  0  0  0
  1  2  1  0
  2  3  2  0
  2  4  2  0
  2  5  1  0
  5  6  2  0
  6  7  1  0
  7  8  2  0
  8  9  1  0
  9 10  1  0
 10 11  1  0
 11 12  2  0
 11 13  1  0
 13 14  2  0
 14 15  1  0
 15 16  1  0
 16 17  2  0
 14 18  1  0
 18 19  2  0
 19 20  1  0
 20 21  1  0
 20 22  2  0
 22 23  1  0
 22 24  1  0
 24 25  2  0
 25 26  1  0
  8 27  1  0
 27 28  2  0
 28  5  1  0
 17 13  1  0
 25 18  1  0
  1 29  1  0
  1 30  1  0
  6 31  1  0
  7 32  1  0
  9 33  1  0
  9 34  1  0
 10 35  1  0
 15 36  1  0
 17 37  1  0
 19 38  1  0
 23 39  1  0
 24 40  1  0
 26 41  1  0
 27 42  1  0
 28 43  1  0
M  END
$$$$
