
     RDKit          3D

 31 32  0  0  0  0  0  0  0  0999 V2000
    1.1892   -1.5748    1.6968 C   0  0  0  0  0  0  0  0  0  0  0  0
    0.9686   -0.9680    0.3052 C   0  0  2  0  0  0  0  0  0  0  0  0
    2.2093   -0.3003   -0.2419 C   0  0  0  0  0  0  0  0  0  0  0  0
    3.2400    0.2774    0.4755 C   0  0  0  0  0  0  0  0  0  0  0  0
    4.1075    0.8069   -0.3992 N   0  0  0  0  0  0  0  0  0  0  0  0
    3.5929    0.5541   -1.6166 C   0  0  0  0  0  0  0  0  0  0  0  0
    2.4243   -0.1180   -1.5612 N   0  0  0  0  0  0  0  0  0  0  0  0
   -0.2175   -0.0062    0.3224 C   0  0  0  0  0  0  0  0  0  0  0  0
   -1.5002   -0.3630   -0.1916 C   0  0  0  0  0  0  0  0  0  0  0  0
   -1.7398   -1.7525   -0.7466 C   0  0  0  0  0  0  0  0  0  0  0  0
   -2.5407    0.6090   -0.1975 C   0  0  0  0  0  0  0  0  0  0  0  0
   -3.8984    0.3270   -0.7904 C   0  0  0  0  0  0  0  0  0  0  0  0
   -2.3188    1.8675    0.3816 C   0  0  0  0  0  0  0  0  0  0  0  0
   -1.0871    2.1842    0.9411 C   0  0  0  0  0  0  0  0  0  0  0  0
   -0.0481    1.2612    0.9133 C   0  0  0  0  0  0  0  0  0  0  0  0
    0.2909   -2.1522    2.0032 H   0  0  0  0  0  0  0  0  0  0  0  0
    2.0579   -2.2672    1.6797 H   0  0  0  0  0  0  0  0  0  0  0  0
    1.3722   -0.7837    2.4546 H   0  0  0  0  0  0  0  0  0  0  0  0
    0.7802   -1.8162   -0.3824 H   0  0  0  0  0  0  0  0  0  0  0  0
    3.3494    0.3223    1.5509 H   0  0  0  0  0  0  0  0  0  0  0  0
    4.9916    1.3170   -0.1810 H   0  0  0  0  0  0  0  0  0  0  0  0
    4.0612    0.8633   -2.5416 H   0  0  0  0  0  0  0  0  0  0  0  0
   -1.2305   -1.8546   -1.7277 H   0  0  0  0  0  0  0  0  0  0  0  0
   -1.3539   -2.5182   -0.0418 H   0  0  0  0  0  0  0  0  0  0  0  0
   -2.8114   -1.9920   -0.8851 H   0  0  0  0  0  0  0  0  0  0  0  0
   -4.4341   -0.4175   -0.1650 H   0  0  0  0  0  0  0  0  0  0  0  0
   -3.7897   -0.0580   -1.8262 H   0  0  0  0  0  0  0  0  0  0  0  0
   -4.5235    1.2440   -0.8432 H   0  0  0  0  0  0  0  0  0  0  0  0
   -3.1062    2.6110    0.4054 H   0  0  0  0  0  0  0  0  0  0  0  0
   -0.9338    3.1557    1.3933 H   0  0  0  0  0  0  0  0  0  0  0  0
    0.8985    1.5420    1.3560 H   0  0  0  0  0  0  0  0  0  0  0  0
  1  2  1  0
  2  3  1  0
  3  4  2  0
  4  5  1  0
  5  6  1  0
  6  7  2  0
  2  8  1  0
  8  9  2  0
  9 10  1  0
  9 11  1  0
 11 12  1  0
 11 13  2  0
 13 14  1  0
 14 15  2  0
  7  3  1  0
 15  8  1  0
  1 16  1  0
  1 17  1  0
  1 18  1  0
  2 19  1  6
  4 20  1  0
  5 21  1  0
  6 22  1  0
 10 23  1  0
 10 24  1  0
 10 25  1  0
 12 26  1  0
 12 27  1  0
 12 28  1  0
 13 29  1  0
 14 30  1  0
 15 31  1  0
M  END
$$$$
