
     RDKit          3D

 63 65  0  0  0  0  0  0  0  0999 V2000
    8.6861    1.6304   -0.9409 C   0  0  0  0  0  0  0  0  0  0  0  0
    7.5548    2.3320   -0.4395 O   0  0  0  0  0  0  0  0  0  0  0  0
    6.2958    1.7386   -0.3138 C   0  0  0  0  0  0  0  0  0  0  0  0
    6.1218    0.5332   -0.6455 O   0  0  0  0  0  0  0  0  0  0  0  0
    5.2055    2.5124    0.2005 N   0  0  0  0  0  0  0  0  0  0  0  0
    3.8522    1.9660    0.3439 C   0  0  1  0  0  0  0  0  0  0  0  0
    3.0443    2.8165    1.3325 C   0  0  0  0  0  0  0  0  0  0  0  0
    3.1620    1.9156   -1.0320 C   0  0  0  0  0  0  0  0  0  0  0  0
    1.8624    1.2514   -0.9442 N   0  0  0  0  0  0  0  0  0  0  0  0
    1.7241   -0.1667   -0.7934 C   0  0  0  0  0  0  0  0  0  0  0  0
    2.8140   -0.9803   -0.8314 N   0  0  0  0  0  0  0  0  0  0  0  0
    2.6871   -2.3246   -0.6907 C   0  0  0  0  0  0  0  0  0  0  0  0
    1.4266   -2.8903   -0.5020 C   0  0  0  0  0  0  0  0  0  0  0  0
    0.3114   -2.0436   -0.4566 C   0  0  0  0  0  0  0  0  0  0  0  0
    0.4899   -0.7045   -0.6133 N   0  0  0  0  0  0  0  0  0  0  0  0
   -1.0512   -2.5820   -0.2623 C   0  0  0  0  0  0  0  0  0  0  0  0
   -1.5008   -3.8405   -0.6154 C   0  0  0  0  0  0  0  0  0  0  0  0
   -2.8277   -3.8944   -0.3903 N   0  0  0  0  0  0  0  0  0  0  0  0
   -3.2548   -2.7346    0.0865 N   0  0  0  0  0  0  0  0  0  0  0  0
   -2.1897   -1.9142    0.1814 C   0  0  0  0  0  0  0  0  0  0  0  0
   -2.2739   -0.5448    0.7286 C   0  0  0  0  0  0  0  0  0  0  0  0
   -1.3438   -0.1086    1.6838 C   0  0  0  0  0  0  0  0  0  0  0  0
   -1.4244    1.1820    2.2084 C   0  0  0  0  0  0  0  0  0  0  0  0
   -0.2580    1.7135    3.4060 Cl  0  0  0  0  0  0  0  0  0  0  0  0
   -2.4382    2.0468    1.7894 C   0  0  0  0  0  0  0  0  0  0  0  0
   -3.3863    1.6276    0.8381 C   0  0  0  0  0  0  0  0  0  0  0  0
   -4.4421    2.5001    0.3946 N   0  0  0  0  0  0  0  0  0  0  0  0
   -4.3879    4.2305    0.5226 S   0  0  0  0  0  6  0  0  0  0  0  0
   -2.9075    4.8588   -0.2424 C   0  0  0  0  0  0  0  0  0  0  0  0
   -5.5752    4.8078   -0.1949 O   0  0  0  0  0  0  0  0  0  0  0  0
   -4.4473    4.6423    1.9667 O   0  0  0  0  0  0  0  0  0  0  0  0
   -3.3073    0.3191    0.3251 C   0  0  0  0  0  0  0  0  0  0  0  0
   -4.2126   -0.0988   -0.5979 F   0  0  0  0  0  0  0  0  0  0  0  0
   -3.6983   -5.0383   -0.6692 C   0  0  0  0  0  0  0  0  0  0  0  0
   -4.4418   -5.4589    0.6011 C   0  0  0  0  0  0  0  0  0  0  0  0
   -4.6795   -4.6893   -1.7904 C   0  0  0  0  0  0  0  0  0  0  0  0
    8.4911    1.2869   -1.9790 H   0  0  0  0  0  0  0  0  0  0  0  0
    9.5635    2.3091   -0.9456 H   0  0  0  0  0  0  0  0  0  0  0  0
    8.9102    0.7570   -0.2924 H   0  0  0  0  0  0  0  0  0  0  0  0
    5.4047    3.4932    0.5029 H   0  0  0  0  0  0  0  0  0  0  0  0
    3.9222    0.9396    0.7663 H   0  0  0  0  0  0  0  0  0  0  0  0
    2.0399    2.3722    1.4945 H   0  0  0  0  0  0  0  0  0  0  0  0
    2.9229    3.8529    0.9508 H   0  0  0  0  0  0  0  0  0  0  0  0
    3.5671    2.8547    2.3118 H   0  0  0  0  0  0  0  0  0  0  0  0
    3.7986    1.3809   -1.7692 H   0  0  0  0  0  0  0  0  0  0  0  0
    3.0204    2.9513   -1.4117 H   0  0  0  0  0  0  0  0  0  0  0  0
    0.9980    1.8348   -1.0139 H   0  0  0  0  0  0  0  0  0  0  0  0
    3.5661   -2.9543   -0.7231 H   0  0  0  0  0  0  0  0  0  0  0  0
    1.3294   -3.9614   -0.3796 H   0  0  0  0  0  0  0  0  0  0  0  0
   -0.9151   -4.6430   -1.0452 H   0  0  0  0  0  0  0  0  0  0  0  0
   -0.5621   -0.7744    2.0292 H   0  0  0  0  0  0  0  0  0  0  0  0
   -2.4853    3.0339    2.2241 H   0  0  0  0  0  0  0  0  0  0  0  0
   -5.2436    2.0987   -0.1412 H   0  0  0  0  0  0  0  0  0  0  0  0
   -2.0132    4.5107    0.3125 H   0  0  0  0  0  0  0  0  0  0  0  0
   -2.8515    4.4975   -1.2898 H   0  0  0  0  0  0  0  0  0  0  0  0
   -2.9301    5.9680   -0.2370 H   0  0  0  0  0  0  0  0  0  0  0  0
   -3.0820   -5.9020   -1.0064 H   0  0  0  0  0  0  0  0  0  0  0  0
   -5.0594   -6.3607    0.4024 H   0  0  0  0  0  0  0  0  0  0  0  0
   -3.7109   -5.7035    1.4010 H   0  0  0  0  0  0  0  0  0  0  0  0
   -5.1037   -4.6413    0.9588 H   0  0  0  0  0  0  0  0  0  0  0  0
   -4.1185   -4.3937   -2.7024 H   0  0  0  0  0  0  0  0  0  0  0  0
   -5.3100   -5.5703   -2.0362 H   0  0  0  0  0  0  0  0  0  0  0  0
   -5.3383   -3.8473   -1.4874 H   0  0  0  0  0  0  0  0  0  0  0  0
  1  2  1  0
  2  3  1  0
  3  4  2  0
  3  5  1  0
  5  6  1  0
  6  7  1  0
  6  8  1  0
  8  9  1  0
  9 10  1  0
 10 11  2  0
 11 12  1  0
 12 13  2  0
 13 14  1  0
 14 15  2  0
 14 16  1  0
 16 17  2  0
 17 18  1  0
 18 19  1  0
 19 20  2  0
 20 21  1  0
 21 22  2  0
 22 23  1  0
 23 24  1  0
 23 25  2  0
 25 26  1  0
 26 27  1  0
 27 28  1  0
 28 29  1  0
 28 30  2  0
 28 31  2  0
 26 32  2  0
 32 33  1  0
 18 34  1  0
 34 35  1  0
 34 36  1  0
 15 10  1  0
 20 16  1  0
 32 21  1  0
  1 37  1  0
  1 38  1  0
  1 39  1  0
  5 40  1  0
  6 41  1  1
  7 42  1  0
  7 43  1  0
  7 44  1  0
  8 45  1  0
  8 46  1  0
  9 47  1  0
 12 48  1  0
 13 49  1  0
 17 50  1  0
 22 51  1  0
 25 52  1  0
 27 53  1  0
 29 54  1  0
 29 55  1  0
 29 56  1  0
 34 57  1  0
 35 58  1  0
 35 59  1  0
 35 60  1  0
 36 61  1  0
 36 62  1  0
 36 63  1  0
M  END
$$$$
