
     RDKit          3D

 66 70  0  0  0  0  0  0  0  0999 V2000
   -3.4267   -1.4629    1.7907 O   0  0  0  0  0  0  0  0  0  0  0  0
   -3.3427   -0.5484    0.7130 C   0  0  0  0  0  0  0  0  0  0  0  0
   -3.9685    0.8045    1.1312 C   0  0  0  0  0  0  0  0  0  0  0  0
   -4.4243    1.7129    0.1483 C   0  0  0  0  0  0  0  0  0  0  0  0
   -4.9775    2.9441    0.5078 C   0  0  0  0  0  0  0  0  0  0  0  0
   -5.0873    3.2965    1.8521 C   0  0  0  0  0  0  0  0  0  0  0  0
   -4.6451    2.4174    2.8401 C   0  0  0  0  0  0  0  0  0  0  0  0
   -4.0908    1.1831    2.4888 C   0  0  0  0  0  0  0  0  0  0  0  0
   -4.2844   -1.1798   -0.3518 C   0  0  0  0  0  0  0  0  0  0  0  0
   -3.8881   -1.7270   -1.5984 C   0  0  0  0  0  0  0  0  0  0  0  0
   -4.8228   -2.3047   -2.4640 C   0  0  0  0  0  0  0  0  0  0  0  0
   -6.1663   -2.3773   -2.1064 C   0  0  0  0  0  0  0  0  0  0  0  0
   -6.5808   -1.8820   -0.8742 C   0  0  0  0  0  0  0  0  0  0  0  0
   -5.6542   -1.3033   -0.0049 C   0  0  0  0  0  0  0  0  0  0  0  0
   -1.7966   -0.3189    0.3150 C   0  0  0  0  0  0  0  0  0  0  0  0
   -1.0093    0.4758    1.4160 C   0  0  0  0  0  0  0  0  0  0  0  0
    0.4657    0.7016    0.9832 C   0  0  0  0  0  0  0  0  0  0  0  0
    0.7665    0.0179   -0.3087 N   0  0  0  0  0  4  0  0  0  0  0  0
    2.1845    0.2511   -0.7313 C   0  0  0  0  0  0  0  0  0  0  0  0
    3.2692   -0.4308    0.1272 C   0  0  0  0  0  0  0  0  0  0  0  0
    4.5361   -0.0037   -0.3295 O   0  0  0  0  0  0  0  0  0  0  0  0
    5.5515   -0.6198    0.4338 C   0  0  0  0  0  0  0  0  0  0  0  0
    6.8861   -0.1526   -0.0704 C   0  0  0  0  0  0  0  0  0  0  0  0
    7.4714    1.0137    0.4504 C   0  0  0  0  0  0  0  0  0  0  0  0
    8.6965    1.4692   -0.0472 C   0  0  0  0  0  0  0  0  0  0  0  0
    9.3382    0.7721   -1.0748 C   0  0  0  0  0  0  0  0  0  0  0  0
    8.7533   -0.3788   -1.6101 C   0  0  0  0  0  0  0  0  0  0  0  0
    7.5283   -0.8378   -1.1153 C   0  0  0  0  0  0  0  0  0  0  0  0
    0.4609   -1.4344   -0.1787 C   0  0  0  0  0  0  0  0  0  0  0  0
   -1.0277   -1.6718    0.1744 C   0  0  0  0  0  0  0  0  0  0  0  0
   -0.1151    0.5898   -1.3698 C   0  0  0  0  0  0  0  0  0  0  0  0
   -1.6047    0.5479   -0.9671 C   0  0  0  0  0  0  0  0  0  0  0  0
   -2.7645   -1.2449    2.4891 H   0  0  0  0  0  0  0  0  0  0  0  0
   -4.3580    1.4664   -0.9036 H   0  0  0  0  0  0  0  0  0  0  0  0
   -5.3221    3.6260   -0.2588 H   0  0  0  0  0  0  0  0  0  0  0  0
   -5.5157    4.2512    2.1286 H   0  0  0  0  0  0  0  0  0  0  0  0
   -4.7302    2.6934    3.8833 H   0  0  0  0  0  0  0  0  0  0  0  0
   -3.7577    0.5400    3.2894 H   0  0  0  0  0  0  0  0  0  0  0  0
   -2.8771   -1.7326   -1.9490 H   0  0  0  0  0  0  0  0  0  0  0  0
   -4.4999   -2.7052   -3.4167 H   0  0  0  0  0  0  0  0  0  0  0  0
   -6.8840   -2.8278   -2.7798 H   0  0  0  0  0  0  0  0  0  0  0  0
   -7.6220   -1.9515   -0.5868 H   0  0  0  0  0  0  0  0  0  0  0  0
   -6.0114   -0.9461    0.9533 H   0  0  0  0  0  0  0  0  0  0  0  0
   -1.0024   -0.0590    2.3876 H   0  0  0  0  0  0  0  0  0  0  0  0
   -1.4711    1.4692    1.6015 H   0  0  0  0  0  0  0  0  0  0  0  0
    0.6600    1.7952    0.8956 H   0  0  0  0  0  0  0  0  0  0  0  0
    1.1179    0.3237    1.7979 H   0  0  0  0  0  0  0  0  0  0  0  0
    2.3322   -0.1056   -1.7771 H   0  0  0  0  0  0  0  0  0  0  0  0
    2.3974    1.3449   -0.7417 H   0  0  0  0  0  0  0  0  0  0  0  0
    3.1441   -0.1543    1.1946 H   0  0  0  0  0  0  0  0  0  0  0  0
    3.1860   -1.5340    0.0106 H   0  0  0  0  0  0  0  0  0  0  0  0
    5.4551   -0.3527    1.5115 H   0  0  0  0  0  0  0  0  0  0  0  0
    5.4964   -1.7294    0.3455 H   0  0  0  0  0  0  0  0  0  0  0  0
    6.9798    1.5691    1.2395 H   0  0  0  0  0  0  0  0  0  0  0  0
    9.1464    2.3649    0.3610 H   0  0  0  0  0  0  0  0  0  0  0  0
   10.2855    1.1268   -1.4598 H   0  0  0  0  0  0  0  0  0  0  0  0
    9.2471   -0.9133   -2.4113 H   0  0  0  0  0  0  0  0  0  0  0  0
    7.0810   -1.7250   -1.5462 H   0  0  0  0  0  0  0  0  0  0  0  0
    0.7105   -1.9712   -1.1226 H   0  0  0  0  0  0  0  0  0  0  0  0
    1.0718   -1.8927    0.6299 H   0  0  0  0  0  0  0  0  0  0  0  0
   -1.4633   -2.3590   -0.5667 H   0  0  0  0  0  0  0  0  0  0  0  0
   -1.0724   -2.2271    1.1367 H   0  0  0  0  0  0  0  0  0  0  0  0
    0.0118    0.0270   -2.3239 H   0  0  0  0  0  0  0  0  0  0  0  0
    0.1650    1.6469   -1.5875 H   0  0  0  0  0  0  0  0  0  0  0  0
   -2.2084    0.2434   -1.8350 H   0  0  0  0  0  0  0  0  0  0  0  0
   -1.9230    1.5921   -0.7587 H   0  0  0  0  0  0  0  0  0  0  0  0
  1  2  1  0
  2  3  1  0
  3  4  2  0
  4  5  1  0
  5  6  2  0
  6  7  1  0
  7  8  2  0
  2  9  1  0
  9 10  2  0
 10 11  1  0
 11 12  2  0
 12 13  1  0
 13 14  2  0
  2 15  1  0
 15 16  1  0
 16 17  1  0
 17 18  1  0
 18 19  1  0
 19 20  1  0
 20 21  1  0
 21 22  1  0
 22 23  1  0
 23 24  2  0
 24 25  1  0
 25 26  2  0
 26 27  1  0
 27 28  2  0
 18 29  1  0
 29 30  1  0
 18 31  1  0
 31 32  1  0
  8  3  1  0
 14  9  1  0
 30 15  1  0
 32 15  1  0
 28 23  1  0
  1 33  1  0
  4 34  1  0
  5 35  1  0
  6 36  1  0
  7 37  1  0
  8 38  1  0
 10 39  1  0
 11 40  1  0
 12 41  1  0
 13 42  1  0
 14 43  1  0
 16 44  1  0
 16 45  1  0
 17 46  1  0
 17 47  1  0
 19 48  1  0
 19 49  1  0
 20 50  1  0
 20 51  1  0
 22 52  1  0
 22 53  1  0
 24 54  1  0
 25 55  1  0
 26 56  1  0
 27 57  1  0
 28 58  1  0
 29 59  1  0
 29 60  1  0
 30 61  1  0
 30 62  1  0
 31 63  1  0
 31 64  1  0
 32 65  1  0
 32 66  1  0
M  CHG  1  18   1
M  END
$$$$
