
     RDKit          3D

 55 54  0  0  0  0  0  0  0  0999 V2000
    3.4156   -1.2749   -2.6969 C   0  0  0  0  0  0  0  0  0  0  0  0
    4.0606   -2.0784   -1.5673 C   0  0  0  0  0  0  0  0  0  0  0  0
    3.8691   -1.4264   -0.1892 C   0  0  0  0  0  0  0  0  0  0  0  0
    2.4189   -1.5155    0.3057 C   0  0  0  0  0  0  0  0  0  0  0  0
    2.2783   -0.9285    1.7152 C   0  0  0  0  0  0  0  0  0  0  0  0
    0.8222   -1.0143    2.1915 C   0  0  0  0  0  0  0  0  0  0  0  0
    0.6023   -0.4009    3.5874 C   0  0  0  0  0  0  0  0  0  0  0  0
    0.9437    1.0997    3.7033 C   0  0  0  0  0  0  0  0  0  0  0  0
    0.4121    1.9273    2.5623 C   0  0  0  0  0  0  0  0  0  0  0  0
   -0.8950    1.9783    2.2698 C   0  0  0  0  0  0  0  0  0  0  0  0
   -1.3769    2.6894    1.0350 C   0  0  0  0  0  0  0  0  0  0  0  0
   -2.7552    2.1645    0.6101 C   0  0  0  0  0  0  0  0  0  0  0  0
   -3.2285    2.7430   -0.7343 C   0  0  0  0  0  0  0  0  0  0  0  0
   -2.4152    2.2880   -1.9643 C   0  0  0  0  0  0  0  0  0  0  0  0
   -2.4333    0.7622   -2.2001 C   0  0  0  0  0  0  0  0  0  0  0  0
   -1.1247    0.0855   -1.7513 C   0  0  0  0  0  0  0  0  0  0  0  0
   -1.1507   -1.4329   -1.9696 C   0  0  0  0  0  0  0  0  0  0  0  0
   -2.0781   -2.1152   -1.0067 C   0  0  0  0  0  0  0  0  0  0  0  0
   -3.3936   -2.4944   -1.4111 N   0  0  0  0  0  0  0  0  0  0  0  0
   -1.7029   -2.3307    0.1765 O   0  0  0  0  0  0  0  0  0  0  0  0
    3.6915   -1.7257   -3.6734 H   0  0  0  0  0  0  0  0  0  0  0  0
    3.7731   -0.2235   -2.6802 H   0  0  0  0  0  0  0  0  0  0  0  0
    2.3096   -1.2909   -2.6115 H   0  0  0  0  0  0  0  0  0  0  0  0
    3.6496   -3.1114   -1.5629 H   0  0  0  0  0  0  0  0  0  0  0  0
    5.1508   -2.1518   -1.7717 H   0  0  0  0  0  0  0  0  0  0  0  0
    4.1922   -0.3628   -0.2287 H   0  0  0  0  0  0  0  0  0  0  0  0
    4.5281   -1.9526    0.5358 H   0  0  0  0  0  0  0  0  0  0  0  0
    2.0944   -2.5794    0.3143 H   0  0  0  0  0  0  0  0  0  0  0  0
    1.7570   -0.9475   -0.3820 H   0  0  0  0  0  0  0  0  0  0  0  0
    2.9300   -1.4874    2.4221 H   0  0  0  0  0  0  0  0  0  0  0  0
    2.6069    0.1323    1.6911 H   0  0  0  0  0  0  0  0  0  0  0  0
    0.1539   -0.5205    1.4548 H   0  0  0  0  0  0  0  0  0  0  0  0
    0.5225   -2.0842    2.2348 H   0  0  0  0  0  0  0  0  0  0  0  0
   -0.4646   -0.5460    3.8637 H   0  0  0  0  0  0  0  0  0  0  0  0
    1.2064   -0.9631    4.3323 H   0  0  0  0  0  0  0  0  0  0  0  0
    0.5333    1.4927    4.6583 H   0  0  0  0  0  0  0  0  0  0  0  0
    2.0471    1.2203    3.7495 H   0  0  0  0  0  0  0  0  0  0  0  0
    1.1259    2.4534    1.9339 H   0  0  0  0  0  0  0  0  0  0  0  0
   -1.6057    1.4365    2.8890 H   0  0  0  0  0  0  0  0  0  0  0  0
   -1.4297    3.7806    1.2372 H   0  0  0  0  0  0  0  0  0  0  0  0
   -0.6436    2.5209    0.2195 H   0  0  0  0  0  0  0  0  0  0  0  0
   -3.4948    2.4525    1.3891 H   0  0  0  0  0  0  0  0  0  0  0  0
   -2.7523    1.0548    0.5657 H   0  0  0  0  0  0  0  0  0  0  0  0
   -4.2909    2.4522   -0.8861 H   0  0  0  0  0  0  0  0  0  0  0  0
   -3.2030    3.8533   -0.6795 H   0  0  0  0  0  0  0  0  0  0  0  0
   -1.3770    2.6789   -1.9164 H   0  0  0  0  0  0  0  0  0  0  0  0
   -2.8751    2.7760   -2.8515 H   0  0  0  0  0  0  0  0  0  0  0  0
   -3.3062    0.3025   -1.6892 H   0  0  0  0  0  0  0  0  0  0  0  0
   -2.5615    0.5742   -3.2889 H   0  0  0  0  0  0  0  0  0  0  0  0
   -0.9164    0.2977   -0.6831 H   0  0  0  0  0  0  0  0  0  0  0  0
   -0.2830    0.5068   -2.3434 H   0  0  0  0  0  0  0  0  0  0  0  0
   -1.4428   -1.6642   -3.0167 H   0  0  0  0  0  0  0  0  0  0  0  0
   -0.1264   -1.8361   -1.8191 H   0  0  0  0  0  0  0  0  0  0  0  0
   -4.0395   -2.9573   -0.7340 H   0  0  0  0  0  0  0  0  0  0  0  0
   -3.7284   -2.3070   -2.3822 H   0  0  0  0  0  0  0  0  0  0  0  0
  1  2  1  0
  2  3  1  0
  3  4  1  0
  4  5  1  0
  5  6  1  0
  6  7  1  0
  7  8  1  0
  8  9  1  0
  9 10  2  0
 10 11  1  0
 11 12  1  0
 12 13  1  0
 13 14  1  0
 14 15  1  0
 15 16  1  0
 16 17  1  0
 17 18  1  0
 18 19  1  0
 18 20  2  0
  1 21  1  0
  1 22  1  0
  1 23  1  0
  2 24  1  0
  2 25  1  0
  3 26  1  0
  3 27  1  0
  4 28  1  0
  4 29  1  0
  5 30  1  0
  5 31  1  0
  6 32  1  0
  6 33  1  0
  7 34  1  0
  7 35  1  0
  8 36  1  0
  8 37  1  0
  9 38  1  0
 10 39  1  0
 11 40  1  0
 11 41  1  0
 12 42  1  0
 12 43  1  0
 13 44  1  0
 13 45  1  0
 14 46  1  0
 14 47  1  0
 15 48  1  0
 15 49  1  0
 16 50  1  0
 16 51  1  0
 17 52  1  0
 17 53  1  0
 19 54  1  0
 19 55  1  0
M  END
$$$$
