
     RDKit          3D

 21 20  0  0  0  0  0  0  0  0999 V2000
   -1.7030   -0.3020   -0.9154 C   0  0  0  0  0  0  0  0  0  0  0  0
   -0.5739   -0.0052    0.0005 N   0  0  0  0  0  4  0  0  0  0  0  0
   -0.4215    1.4663    0.0878 C   0  0  0  0  0  0  0  0  0  0  0  0
   -0.9104   -0.5509    1.3385 C   0  0  0  0  0  0  0  0  0  0  0  0
    0.6530   -0.6557   -0.5576 C   0  0  0  0  0  0  0  0  0  0  0  0
    1.9725   -0.3706    0.1981 C   0  0  0  0  0  0  0  0  0  0  0  0
    2.4687    0.9068   -0.1007 O   0  0  0  0  0  0  0  0  0  0  0  0
   -1.5132    0.1088   -1.9327 H   0  0  0  0  0  0  0  0  0  0  0  0
   -2.6543    0.1442   -0.5467 H   0  0  0  0  0  0  0  0  0  0  0  0
   -1.8612   -1.3999   -1.0131 H   0  0  0  0  0  0  0  0  0  0  0  0
   -0.0833    1.8901   -0.8841 H   0  0  0  0  0  0  0  0  0  0  0  0
   -1.3854    1.9534    0.3586 H   0  0  0  0  0  0  0  0  0  0  0  0
    0.3106    1.7533    0.8730 H   0  0  0  0  0  0  0  0  0  0  0  0
   -0.9473   -1.6630    1.3207 H   0  0  0  0  0  0  0  0  0  0  0  0
   -0.1769   -0.2374    2.1102 H   0  0  0  0  0  0  0  0  0  0  0  0
   -1.9032   -0.1823    1.6822 H   0  0  0  0  0  0  0  0  0  0  0  0
    0.5136   -1.7612   -0.5744 H   0  0  0  0  0  0  0  0  0  0  0  0
    0.7999   -0.3548   -1.6206 H   0  0  0  0  0  0  0  0  0  0  0  0
    1.8507   -0.4669    1.2934 H   0  0  0  0  0  0  0  0  0  0  0  0
    2.7266   -1.1358   -0.0966 H   0  0  0  0  0  0  0  0  0  0  0  0
    2.8378    0.8627   -1.0213 H   0  0  0  0  0  0  0  0  0  0  0  0
  1  2  1  0
  2  3  1  0
  2  4  1  0
  2  5  1  0
  5  6  1  0
  6  7  1  0
  1  8  1  0
  1  9  1  0
  1 10  1  0
  3 11  1  0
  3 12  1  0
  3 13  1  0
  4 14  1  0
  4 15  1  0
  4 16  1  0
  5 17  1  0
  5 18  1  0
  6 19  1  0
  6 20  1  0
  7 21  1  0
M  CHG  1   2   1
M  END
$$$$
