
     RDKit          3D

 15 14  0  0  0  0  0  0  0  0999 V2000
   -0.7869   -1.2199    0.2406 C   0  0  0  0  0  0  0  0  0  0  0  0
   -0.0402    0.0311   -0.2821 C   0  0  0  0  0  0  0  0  0  0  0  0
    1.4542   -0.3291   -0.4167 C   0  0  0  0  0  0  0  0  0  0  0  0
   -0.5053    0.3475   -1.5748 O   0  0  0  0  0  0  0  0  0  0  0  0
   -0.2375    1.2623    0.6687 C   0  0  0  0  0  0  0  0  0  0  0  0
    0.4397    0.9741    2.2999 Cl  0  0  0  0  0  0  0  0  0  0  0  0
    0.5551    2.7200    0.0021 Cl  0  0  0  0  0  0  0  0  0  0  0  0
   -1.9662    1.6718    0.8816 Cl  0  0  0  0  0  0  0  0  0  0  0  0
   -0.4051   -1.5265    1.2373 H   0  0  0  0  0  0  0  0  0  0  0  0
   -0.6471   -2.0703   -0.4611 H   0  0  0  0  0  0  0  0  0  0  0  0
   -1.8777   -1.0342    0.3242 H   0  0  0  0  0  0  0  0  0  0  0  0
    1.5814   -1.1731   -1.1286 H   0  0  0  0  0  0  0  0  0  0  0  0
    1.8884   -0.6368    0.5579 H   0  0  0  0  0  0  0  0  0  0  0  0
    2.0382    0.5278   -0.8120 H   0  0  0  0  0  0  0  0  0  0  0  0
   -1.4910    0.4554   -1.5369 H   0  0  0  0  0  0  0  0  0  0  0  0
  1  2  1  0
  2  3  1  0
  2  4  1  0
  2  5  1  0
  5  6  1  0
  5  7  1  0
  5  8  1  0
  1  9  1  0
  1 10  1  0
  1 11  1  0
  3 12  1  0
  3 13  1  0
  3 14  1  0
  4 15  1  0
M  END
$$$$
