
     RDKit          3D

 10  9  0  0  0  0  0  0  0  0999 V2000
   -1.4002    0.1565   -0.6114 C   0  0  0  0  0  0  0  0  0  0  0  0
   -0.3371    0.2051    0.4410 C   0  0  0  0  0  0  0  0  0  0  0  0
   -0.6278    0.6038    1.6004 O   0  0  0  0  0  0  0  0  0  0  0  0
    1.0417   -0.2059    0.1405 C   0  0  0  0  0  0  0  0  0  0  0  0
    2.0131   -0.1519    1.1356 O   0  0  0  0  0  0  0  0  0  0  0  0
    1.3500   -0.6073   -1.0139 O   0  0  0  0  0  0  0  0  0  0  0  0
   -1.1172    0.8135   -1.4603 H   0  0  0  0  0  0  0  0  0  0  0  0
   -2.3724    0.5029   -0.2005 H   0  0  0  0  0  0  0  0  0  0  0  0
   -1.5181   -0.8852   -0.9768 H   0  0  0  0  0  0  0  0  0  0  0  0
    2.9681   -0.4315    0.9455 H   0  0  0  0  0  0  0  0  0  0  0  0
  1  2  1  0
  2  3  2  0
  2  4  1  0
  4  5  1  0
  4  6  2  0
  1  7  1  0
  1  8  1  0
  1  9  1  0
  5 10  1  0
M  END
$$$$
