
     RDKit          3D

 43 43  0  0  0  0  0  0  0  0999 V2000
    7.2340    1.6802    0.3604 N   0  0  0  0  0  0  0  0  0  0  0  0
    7.0216    0.6813   -0.6861 C   0  0  0  0  0  0  0  0  0  0  0  0
    6.2266   -0.5230   -0.1727 C   0  0  0  0  0  0  0  0  0  0  0  0
    4.9268   -0.1113    0.1986 O   0  0  0  0  0  0  0  0  0  0  0  0
    4.1313   -1.2285    0.5503 C   0  0  0  0  0  0  0  0  0  0  0  0
    3.2745   -1.6735   -0.6382 C   0  0  0  0  0  0  0  0  0  0  0  0
    2.5514   -0.5775   -1.1682 O   0  0  0  0  0  0  0  0  0  0  0  0
    1.2425   -0.5427   -0.6385 C   0  0  0  0  0  0  0  0  0  0  0  0
    0.5492    0.7335   -1.1090 C   0  0  0  0  0  0  0  0  0  0  0  0
   -0.7954    0.8272   -0.5434 N   0  0  0  0  0  0  0  0  0  0  0  0
   -1.9054    0.0779   -1.0669 C   0  0  0  0  0  0  0  0  0  0  0  0
   -1.7104   -0.7639   -1.9863 O   0  0  0  0  0  0  0  0  0  0  0  0
   -3.2773    0.2641   -0.5358 C   0  0  0  0  0  0  0  0  0  0  0  0
   -4.2152   -0.7794   -0.6354 C   0  0  0  0  0  0  0  0  0  0  0  0
   -5.5134   -0.6175   -0.1429 C   0  0  0  0  0  0  0  0  0  0  0  0
   -5.8993    0.5933    0.4440 C   0  0  0  0  0  0  0  0  0  0  0  0
   -4.9736    1.6390    0.5422 C   0  0  0  0  0  0  0  0  0  0  0  0
   -3.6741    1.4797    0.0517 C   0  0  0  0  0  0  0  0  0  0  0  0
   -7.5302    0.7909    1.0784 S   0  0  0  0  0  6  0  0  0  0  0  0
   -7.5714    0.3031    2.7360 N   0  0  0  0  0  0  0  0  0  0  0  0
   -7.9479    2.2306    0.9690 O   0  0  0  0  0  0  0  0  0  0  0  0
   -8.4906   -0.0499    0.2846 O   0  0  0  0  0  0  0  0  0  0  0  0
    6.3060    2.0280    0.6945 H   0  0  0  0  0  0  0  0  0  0  0  0
    7.7167    1.2270    1.1703 H   0  0  0  0  0  0  0  0  0  0  0  0
    6.4815    1.1488   -1.5379 H   0  0  0  0  0  0  0  0  0  0  0  0
    8.0092    0.3338   -1.0591 H   0  0  0  0  0  0  0  0  0  0  0  0
    6.1852   -1.2777   -0.9905 H   0  0  0  0  0  0  0  0  0  0  0  0
    6.7607   -0.9640    0.6994 H   0  0  0  0  0  0  0  0  0  0  0  0
    4.7199   -2.0947    0.9363 H   0  0  0  0  0  0  0  0  0  0  0  0
    3.4593   -0.9227    1.3789 H   0  0  0  0  0  0  0  0  0  0  0  0
    2.6288   -2.5329   -0.3376 H   0  0  0  0  0  0  0  0  0  0  0  0
    3.9443   -2.0589   -1.4348 H   0  0  0  0  0  0  0  0  0  0  0  0
    0.6641   -1.4234   -0.9966 H   0  0  0  0  0  0  0  0  0  0  0  0
    1.2608   -0.5410    0.4754 H   0  0  0  0  0  0  0  0  0  0  0  0
    0.4980    0.7597   -2.2194 H   0  0  0  0  0  0  0  0  0  0  0  0
    1.1463    1.6099   -0.7748 H   0  0  0  0  0  0  0  0  0  0  0  0
   -0.9289    1.4516    0.2825 H   0  0  0  0  0  0  0  0  0  0  0  0
   -3.9405   -1.7269   -1.0824 H   0  0  0  0  0  0  0  0  0  0  0  0
   -6.2153   -1.4384   -0.2173 H   0  0  0  0  0  0  0  0  0  0  0  0
   -5.2577    2.5804    0.9950 H   0  0  0  0  0  0  0  0  0  0  0  0
   -2.9947    2.3189    0.1135 H   0  0  0  0  0  0  0  0  0  0  0  0
   -6.8626    0.8806    3.2414 H   0  0  0  0  0  0  0  0  0  0  0  0
   -7.2348   -0.6852    2.7714 H   0  0  0  0  0  0  0  0  0  0  0  0
  1  2  1  0
  2  3  1  0
  3  4  1  0
  4  5  1  0
  5  6  1  0
  6  7  1  0
  7  8  1  0
  8  9  1  0
  9 10  1  0
 10 11  1  0
 11 12  2  0
 11 13  1  0
 13 14  2  0
 14 15  1  0
 15 16  2  0
 16 17  1  0
 17 18  2  0
 16 19  1  0
 19 20  1  0
 19 21  2  0
 19 22  2  0
 18 13  1  0
  1 23  1  0
  1 24  1  0
  2 25  1  0
  2 26  1  0
  3 27  1  0
  3 28  1  0
  5 29  1  0
  5 30  1  0
  6 31  1  0
  6 32  1  0
  8 33  1  0
  8 34  1  0
  9 35  1  0
  9 36  1  0
 10 37  1  0
 14 38  1  0
 15 39  1  0
 17 40  1  0
 18 41  1  0
 20 42  1  0
 20 43  1  0
M  END
$$$$
