
     RDKit          3D

 83 87  0  0  0  0  0  0  0  0999 V2000
   11.4939   -0.9235    5.8737 N   0  0  0  0  0  0  0  0  0  0  0  0
   11.1589   -1.7379    4.7501 C   0  0  0  0  0  0  0  0  0  0  0  0
    9.9587   -1.5846    4.0655 C   0  0  0  0  0  0  0  0  0  0  0  0
    8.9387   -0.7383    4.3034 N   0  0  0  0  0  0  0  0  0  0  0  0
    8.0411   -1.0703    3.3343 C   0  0  0  0  0  0  0  0  0  0  0  0
    8.4739   -2.0669    2.5176 N   0  0  0  0  0  0  0  0  0  0  0  0
    7.7384   -2.7379    1.4447 C   0  0  2  0  0  0  0  0  0  0  0  0
    6.8916   -1.8183    0.7876 O   0  0  0  0  0  0  0  0  0  0  0  0
    5.6275   -2.4270    0.6114 C   0  0  2  0  0  0  0  0  0  0  0  0
    4.5699   -1.6336    1.3949 C   0  0  0  0  0  0  0  0  0  0  0  0
    4.6030   -0.2714    1.0174 O   0  0  0  0  0  0  0  0  0  0  0  0
    3.2826    0.0804   -0.0051 P   0  0  0  0  0  5  0  0  0  0  0  0
    3.3518   -0.9113   -1.3766 O   0  0  0  0  0  0  0  0  0  0  0  0
    3.3776    1.5312   -0.4249 O   0  0  0  0  0  0  0  0  0  0  0  0
    1.8373   -0.1972    0.8526 O   0  0  0  0  0  0  0  0  0  0  0  0
    0.5380    0.3419   -0.1088 P   0  0  0  0  0  5  0  0  0  0  0  0
    0.6657   -0.2266   -1.7036 O   0  0  0  0  0  0  0  0  0  0  0  0
    0.5120    1.8547   -0.1140 O   0  0  0  0  0  0  0  0  0  0  0  0
   -0.9087   -0.2066    0.5978 O   0  0  0  0  0  0  0  0  0  0  0  0
   -1.0779   -1.8576    0.2151 P   0  0  0  0  0  5  0  0  0  0  0  0
    0.4198   -2.6496    0.2720 O   0  0  0  0  0  0  0  0  0  0  0  0
   -1.9824   -2.5050    1.2409 O   0  0  0  0  0  0  0  0  0  0  0  0
   -1.7276   -2.0283   -1.3529 O   0  0  0  0  0  0  0  0  0  0  0  0
   -3.3529   -1.5150   -1.3078 P   0  0  0  0  0  5  0  0  0  0  0  0
   -3.9707   -1.5202   -2.8861 O   0  0  0  0  0  0  0  0  0  0  0  0
   -4.1684   -2.4901   -0.4883 O   0  0  0  0  0  0  0  0  0  0  0  0
   -3.4819    0.0314   -0.6035 O   0  0  0  0  0  0  0  0  0  0  0  0
   -3.1857    1.1854   -1.8200 P   0  0  0  0  0  5  0  0  0  0  0  0
   -1.8437    0.7442   -2.7531 O   0  0  0  0  0  0  0  0  0  0  0  0
   -2.8991    2.5187   -1.1663 O   0  0  0  0  0  0  0  0  0  0  0  0
   -4.5423    1.3371   -2.8433 O   0  0  0  0  0  0  0  0  0  0  0  0
   -5.6834    1.5397   -2.0427 C   0  0  0  0  0  0  0  0  0  0  0  0
   -6.9032    1.7612   -2.9433 C   0  0  1  0  0  0  0  0  0  0  0  0
   -8.0685    1.7988   -2.1427 O   0  0  0  0  0  0  0  0  0  0  0  0
   -8.7930    2.9509   -2.5075 C   0  0  2  0  0  0  0  0  0  0  0  0
   -7.8190    3.9592   -3.0906 C   0  0  2  0  0  0  0  0  0  0  0  0
   -8.4620    4.8078   -4.0062 O   0  0  0  0  0  0  0  0  0  0  0  0
   -6.7910    3.0694   -3.7472 C   0  0  2  0  0  0  0  0  0  0  0  0
   -7.1241    2.8407   -5.0935 O   0  0  0  0  0  0  0  0  0  0  0  0
   -9.5163    3.5117   -1.3469 N   0  0  0  0  0  0  0  0  0  0  0  0
  -10.7952    3.9623   -1.5279 C   0  0  0  0  0  0  0  0  0  0  0  0
  -11.5107    4.5173   -0.4706 C   0  0  0  0  0  0  0  0  0  0  0  0
  -10.8950    4.6155    0.7721 C   0  0  0  0  0  0  0  0  0  0  0  0
  -11.5190    5.1125    1.7472 O   0  0  0  0  0  0  0  0  0  0  0  0
   -9.6188    4.1781    0.9299 N   0  0  0  0  0  0  0  0  0  0  0  0
   -8.9257    3.6377   -0.1109 C   0  0  0  0  0  0  0  0  0  0  0  0
   -7.7364    3.2612    0.0761 O   0  0  0  0  0  0  0  0  0  0  0  0
    5.7018   -3.8860    1.0806 C   0  0  1  0  0  0  0  0  0  0  0  0
    5.8742   -4.7650   -0.0084 O   0  0  0  0  0  0  0  0  0  0  0  0
    6.8996   -3.8796    2.0006 C   0  0  1  0  0  0  0  0  0  0  0  0
    7.6091   -5.0907    1.9679 O   0  0  0  0  0  0  0  0  0  0  0  0
    9.6785   -2.3806    3.0087 C   0  0  0  0  0  0  0  0  0  0  0  0
   10.5233   -3.3480    2.5766 N   0  0  0  0  0  0  0  0  0  0  0  0
   11.7080   -3.5062    3.2407 C   0  0  0  0  0  0  0  0  0  0  0  0
   12.0171   -2.7080    4.3134 N   0  0  0  0  0  0  0  0  0  0  0  0
   12.4016   -1.0627    6.3703 H   0  0  0  0  0  0  0  0  0  0  0  0
   10.8423   -0.1815    6.2135 H   0  0  0  0  0  0  0  0  0  0  0  0
    7.0740   -0.5943    3.2385 H   0  0  0  0  0  0  0  0  0  0  0  0
    8.4616   -3.1290    0.6936 H   0  0  0  0  0  0  0  0  0  0  0  0
    5.3621   -2.3925   -0.4669 H   0  0  0  0  0  0  0  0  0  0  0  0
    3.5716   -2.1205    1.2878 H   0  0  0  0  0  0  0  0  0  0  0  0
    4.8169   -1.6863    2.4768 H   0  0  0  0  0  0  0  0  0  0  0  0
    4.1659   -0.6196   -1.8595 H   0  0  0  0  0  0  0  0  0  0  0  0
    1.0610    0.5214   -2.2187 H   0  0  0  0  0  0  0  0  0  0  0  0
    0.2415   -3.5542   -0.0892 H   0  0  0  0  0  0  0  0  0  0  0  0
   -3.7525   -2.4189   -3.2402 H   0  0  0  0  0  0  0  0  0  0  0  0
   -1.7856    1.4382   -3.4570 H   0  0  0  0  0  0  0  0  0  0  0  0
   -5.5612    2.4284   -1.3816 H   0  0  0  0  0  0  0  0  0  0  0  0
   -5.8787    0.6398   -1.4169 H   0  0  0  0  0  0  0  0  0  0  0  0
   -6.9834    0.8903   -3.6321 H   0  0  0  0  0  0  0  0  0  0  0  0
   -9.5159    2.6426   -3.3000 H   0  0  0  0  0  0  0  0  0  0  0  0
   -7.3397    4.5526   -2.2768 H   0  0  0  0  0  0  0  0  0  0  0  0
   -7.8097    5.5213   -4.2315 H   0  0  0  0  0  0  0  0  0  0  0  0
   -5.7834    3.5442   -3.6795 H   0  0  0  0  0  0  0  0  0  0  0  0
   -6.3276    2.4217   -5.5125 H   0  0  0  0  0  0  0  0  0  0  0  0
  -11.2743    3.8961   -2.4977 H   0  0  0  0  0  0  0  0  0  0  0  0
  -12.5251    4.8670   -0.6190 H   0  0  0  0  0  0  0  0  0  0  0  0
   -9.1594    4.2625    1.8657 H   0  0  0  0  0  0  0  0  0  0  0  0
    4.7909   -4.1988    1.6376 H   0  0  0  0  0  0  0  0  0  0  0  0
    6.6756   -4.4758   -0.5192 H   0  0  0  0  0  0  0  0  0  0  0  0
    6.5718   -3.6453    3.0417 H   0  0  0  0  0  0  0  0  0  0  0  0
    7.0647   -5.7473    2.4757 H   0  0  0  0  0  0  0  0  0  0  0  0
   12.4057   -4.2672    2.9195 H   0  0  0  0  0  0  0  0  0  0  0  0
  1  2  1  0
  2  3  2  0
  3  4  1  0
  4  5  2  0
  5  6  1  0
  6  7  1  0
  7  8  1  0
  8  9  1  0
  9 10  1  0
 10 11  1  0
 11 12  1  0
 12 13  1  0
 12 14  2  0
 12 15  1  0
 15 16  1  0
 16 17  1  0
 16 18  2  0
 16 19  1  0
 19 20  1  0
 20 21  1  0
 20 22  2  0
 20 23  1  0
 23 24  1  0
 24 25  1  0
 24 26  2  0
 24 27  1  0
 27 28  1  0
 28 29  1  0
 28 30  2  0
 28 31  1  0
 31 32  1  0
 32 33  1  0
 33 34  1  0
 34 35  1  0
 35 36  1  0
 36 37  1  0
 36 38  1  0
 38 39  1  0
 35 40  1  0
 40 41  1  0
 41 42  2  0
 42 43  1  0
 43 44  2  0
 43 45  1  0
 45 46  1  0
 46 47  2  0
  9 48  1  0
 48 49  1  0
 48 50  1  0
 50 51  1  0
  6 52  1  0
 52 53  2  0
 53 54  1  0
 54 55  2  0
 55  2  1  0
 52  3  1  0
 50  7  1  0
 38 33  1  0
 46 40  1  0
  1 56  1  0
  1 57  1  0
  5 58  1  0
  7 59  1  6
  9 60  1  6
 10 61  1  0
 10 62  1  0
 13 63  1  0
 17 64  1  0
 21 65  1  0
 25 66  1  0
 29 67  1  0
 32 68  1  0
 32 69  1  0
 33 70  1  6
 35 71  1  6
 36 72  1  1
 37 73  1  0
 38 74  1  6
 39 75  1  0
 41 76  1  0
 42 77  1  0
 45 78  1  0
 48 79  1  1
 49 80  1  0
 50 81  1  1
 51 82  1  0
 54 83  1  0
M  END
$$$$
