
     RDKit          3D

 43 44  0  0  0  0  0  0  0  0999 V2000
    0.6899   -0.2982   -0.4058 C   0  0  2  0  0  0  0  0  0  0  0  0
   -0.2184    0.1635    0.7606 C   0  0  0  0  0  0  0  0  0  0  0  0
   -1.6103   -0.2918    0.5794 N   0  0  0  0  0  0  0  0  0  0  0  0
   -2.2886    0.4212   -0.5249 C   0  0  0  0  0  0  0  0  0  0  0  0
   -3.7805    0.3950   -0.3220 C   0  0  0  0  0  0  0  0  0  0  0  0
   -4.3527    1.0809    0.7620 C   0  0  0  0  0  0  0  0  0  0  0  0
   -5.7361    1.0516    0.9635 C   0  0  0  0  0  0  0  0  0  0  0  0
   -6.5570    0.3370    0.0861 C   0  0  0  0  0  0  0  0  0  0  0  0
   -7.8981    0.3089    0.2834 F   0  0  0  0  0  0  0  0  0  0  0  0
   -5.9947   -0.3497   -0.9939 C   0  0  0  0  0  0  0  0  0  0  0  0
   -4.6116   -0.3225   -1.1990 C   0  0  0  0  0  0  0  0  0  0  0  0
   -1.7124   -1.7698    0.4592 C   0  0  0  0  0  0  0  0  0  0  0  0
   -0.3809   -2.4522    0.0853 C   0  0  0  0  0  0  0  0  0  0  0  0
    0.3678   -1.6567   -0.8940 N   0  0  0  0  0  0  0  0  0  0  0  0
    2.1357   -0.2279    0.0047 C   0  0  0  0  0  0  0  0  0  0  0  0
    2.6782   -1.2207    0.5632 O   0  0  0  0  0  0  0  0  0  0  0  0
    2.8748    0.9885   -0.1791 N   0  0  0  0  0  0  0  0  0  0  0  0
    4.2818    1.1181    0.1943 C   0  0  0  0  0  0  0  0  0  0  0  0
    5.1744    0.4045   -0.8290 C   0  0  0  0  0  0  0  0  0  0  0  0
    6.6552    0.4361   -0.4365 C   0  0  0  0  0  0  0  0  0  0  0  0
    7.3654    2.1053   -0.6154 S   0  0  0  0  0  0  0  0  0  0  0  0
    0.5466    0.4176   -1.2474 H   0  0  0  0  0  0  0  0  0  0  0  0
   -0.1784    1.2710    0.8592 H   0  0  0  0  0  0  0  0  0  0  0  0
    0.1605   -0.2407    1.7263 H   0  0  0  0  0  0  0  0  0  0  0  0
   -2.0112   -0.0156   -1.5098 H   0  0  0  0  0  0  0  0  0  0  0  0
   -1.9792    1.4898   -0.5534 H   0  0  0  0  0  0  0  0  0  0  0  0
   -3.7264    1.6357    1.4499 H   0  0  0  0  0  0  0  0  0  0  0  0
   -6.1707    1.5824    1.8008 H   0  0  0  0  0  0  0  0  0  0  0  0
   -6.6297   -0.9044   -1.6726 H   0  0  0  0  0  0  0  0  0  0  0  0
   -4.1906   -0.8623   -2.0381 H   0  0  0  0  0  0  0  0  0  0  0  0
   -2.4824   -2.0684   -0.2865 H   0  0  0  0  0  0  0  0  0  0  0  0
   -2.0535   -2.1775    1.4343 H   0  0  0  0  0  0  0  0  0  0  0  0
   -0.5861   -3.4597   -0.3369 H   0  0  0  0  0  0  0  0  0  0  0  0
    0.2393   -2.6016    0.9964 H   0  0  0  0  0  0  0  0  0  0  0  0
   -0.2064   -1.5860   -1.7670 H   0  0  0  0  0  0  0  0  0  0  0  0
    2.3774    1.8344   -0.5387 H   0  0  0  0  0  0  0  0  0  0  0  0
    4.4398    0.6989    1.2119 H   0  0  0  0  0  0  0  0  0  0  0  0
    4.5438    2.1971    0.2241 H   0  0  0  0  0  0  0  0  0  0  0  0
    5.0427    0.8699   -1.8301 H   0  0  0  0  0  0  0  0  0  0  0  0
    4.8615   -0.6588   -0.9074 H   0  0  0  0  0  0  0  0  0  0  0  0
    6.7931    0.0747    0.6053 H   0  0  0  0  0  0  0  0  0  0  0  0
    7.2163   -0.2449   -1.1107 H   0  0  0  0  0  0  0  0  0  0  0  0
    6.9117    2.5271    0.6487 H   0  0  0  0  0  0  0  0  0  0  0  0
  1  2  1  0
  2  3  1  0
  3  4  1  0
  4  5  1  0
  5  6  2  0
  6  7  1  0
  7  8  2  0
  8  9  1  0
  8 10  1  0
 10 11  2  0
  3 12  1  0
 12 13  1  0
 13 14  1  0
  1 15  1  0
 15 16  2  0
 15 17  1  0
 17 18  1  0
 18 19  1  0
 19 20  1  0
 20 21  1  0
 14  1  1  0
 11  5  1  0
  1 22  1  6
  2 23  1  0
  2 24  1  0
  4 25  1  0
  4 26  1  0
  6 27  1  0
  7 28  1  0
 10 29  1  0
 11 30  1  0
 12 31  1  0
 12 32  1  0
 13 33  1  0
 13 34  1  0
 14 35  1  0
 17 36  1  0
 18 37  1  0
 18 38  1  0
 19 39  1  0
 19 40  1  0
 20 41  1  0
 20 42  1  0
 21 43  1  0
M  END
$$$$
