
     RDKit          3D

 30 30  0  0  0  0  0  0  0  0999 V2000
   -1.2977   -1.8041    0.5761 C   0  0  0  0  0  0  0  0  0  0  0  0
   -1.2422   -0.2629    0.7344 C   0  0  1  0  0  0  0  0  0  0  0  0
    0.1315    0.1212    1.3666 C   0  0  2  0  0  0  0  0  0  0  0  0
    0.0765    1.4100    1.9218 O   0  0  0  0  0  0  0  0  0  0  0  0
    1.2739    0.0128    0.3701 C   0  0  0  0  0  0  0  0  0  0  0  0
    2.0350   -1.1681    0.2995 C   0  0  0  0  0  0  0  0  0  0  0  0
    3.0719   -1.2880   -0.6305 C   0  0  0  0  0  0  0  0  0  0  0  0
    3.3587   -0.2332   -1.5000 C   0  0  0  0  0  0  0  0  0  0  0  0
    2.6089    0.9438   -1.4409 C   0  0  0  0  0  0  0  0  0  0  0  0
    1.5709    1.0685   -0.5127 C   0  0  0  0  0  0  0  0  0  0  0  0
   -1.4821    0.4824   -0.5458 N   0  0  0  0  0  0  0  0  0  0  0  0
   -2.4141   -0.1944   -1.4711 C   0  0  0  0  0  0  0  0  0  0  0  0
   -2.0077    1.8382   -0.2838 C   0  0  0  0  0  0  0  0  0  0  0  0
   -0.6019   -2.1474   -0.2181 H   0  0  0  0  0  0  0  0  0  0  0  0
   -2.3271   -2.1419    0.3349 H   0  0  0  0  0  0  0  0  0  0  0  0
   -1.0219   -2.3078    1.5270 H   0  0  0  0  0  0  0  0  0  0  0  0
   -2.0367   -0.0113    1.4747 H   0  0  0  0  0  0  0  0  0  0  0  0
    0.3284   -0.5823    2.2105 H   0  0  0  0  0  0  0  0  0  0  0  0
    0.8869    1.5189    2.4859 H   0  0  0  0  0  0  0  0  0  0  0  0
    1.8234   -1.9980    0.9622 H   0  0  0  0  0  0  0  0  0  0  0  0
    3.6522   -2.2004   -0.6783 H   0  0  0  0  0  0  0  0  0  0  0  0
    4.1613   -0.3280   -2.2198 H   0  0  0  0  0  0  0  0  0  0  0  0
    2.8314    1.7603   -2.1157 H   0  0  0  0  0  0  0  0  0  0  0  0
    1.0029    1.9886   -0.4838 H   0  0  0  0  0  0  0  0  0  0  0  0
   -2.6167    0.4386   -2.3625 H   0  0  0  0  0  0  0  0  0  0  0  0
   -1.9600   -1.1246   -1.8704 H   0  0  0  0  0  0  0  0  0  0  0  0
   -3.3808   -0.4234   -0.9701 H   0  0  0  0  0  0  0  0  0  0  0  0
   -1.2856    2.4490    0.2871 H   0  0  0  0  0  0  0  0  0  0  0  0
   -2.1671    2.3865   -1.2377 H   0  0  0  0  0  0  0  0  0  0  0  0
   -2.9721    1.7970    0.2698 H   0  0  0  0  0  0  0  0  0  0  0  0
  1  2  1  0
  2  3  1  0
  3  4  1  0
  3  5  1  0
  5  6  2  0
  6  7  1  0
  7  8  2  0
  8  9  1  0
  9 10  2  0
  2 11  1  0
 11 12  1  0
 11 13  1  0
 10  5  1  0
  1 14  1  0
  1 15  1  0
  1 16  1  0
  2 17  1  1
  3 18  1  1
  4 19  1  0
  6 20  1  0
  7 21  1  0
  8 22  1  0
  9 23  1  0
 10 24  1  0
 12 25  1  0
 12 26  1  0
 12 27  1  0
 13 28  1  0
 13 29  1  0
 13 30  1  0
M  END
$$$$
