
     RDKit          3D

 60 62  0  0  0  0  0  0  0  0999 V2000
   -1.1510   -2.3027    0.7013 C   0  0  2  0  0  0  0  0  0  0  0  0
   -2.0390   -1.7789    1.8323 C   0  0  0  0  0  0  0  0  0  0  0  0
   -1.1205   -1.6145    3.0397 C   0  0  0  0  0  0  0  0  0  0  0  0
    0.2950   -1.5292    2.4840 C   0  0  0  0  0  0  0  0  0  0  0  0
    0.2187   -2.0414    1.1253 N   0  0  0  0  0  0  0  0  0  0  0  0
    1.3718   -2.3785    0.3293 C   0  0  0  0  0  0  0  0  0  0  0  0
    1.2332   -3.0953   -0.6989 O   0  0  0  0  0  0  0  0  0  0  0  0
    2.7332   -1.8277    0.6503 C   0  0  0  0  0  0  0  0  0  0  0  0
    2.8691   -0.3977    0.1059 C   0  0  0  0  0  0  0  0  0  0  0  0
    4.1688    0.3013    0.5657 C   0  0  0  0  0  0  0  0  0  0  0  0
    5.4211   -0.2894   -0.1161 C   0  0  0  0  0  0  0  0  0  0  0  0
    6.7211    0.3427    0.4252 C   0  0  0  0  0  0  0  0  0  0  0  0
    6.5375    1.7810    0.9458 C   0  0  0  0  0  0  0  0  0  0  0  0
    5.4472    2.5224    0.1693 C   0  0  0  0  0  0  0  0  0  0  0  0
    4.0759    1.8277    0.2990 C   0  0  0  0  0  0  0  0  0  0  0  0
   -1.4666   -1.6090   -0.5989 C   0  0  0  0  0  0  0  0  0  0  0  0
   -0.9708   -0.4740   -0.8401 O   0  0  0  0  0  0  0  0  0  0  0  0
   -2.3757   -2.2122   -1.5297 N   0  0  0  0  0  0  0  0  0  0  0  0
   -2.8140   -1.5340   -2.7470 C   0  0  0  0  0  0  0  0  0  0  0  0
   -3.7503   -0.4070   -2.4051 C   0  0  0  0  0  0  0  0  0  0  0  0
   -3.3433    0.9282   -2.5441 C   0  0  0  0  0  0  0  0  0  0  0  0
   -4.2088    1.9699   -2.1980 C   0  0  0  0  0  0  0  0  0  0  0  0
   -5.4940    1.6946   -1.7003 C   0  0  0  0  0  0  0  0  0  0  0  0
   -5.8974    0.3543   -1.5607 C   0  0  0  0  0  0  0  0  0  0  0  0
   -5.0316   -0.6863   -1.9084 C   0  0  0  0  0  0  0  0  0  0  0  0
   -6.4082    2.8061   -1.3357 C   0  0  0  0  0  0  0  0  0  0  0  0
   -6.4187    4.0112   -2.1055 N   0  0  0  0  0  0  0  0  0  0  0  0
   -7.2014    2.7093   -0.3140 N   0  0  0  0  0  0  0  0  0  0  0  0
   -1.2889   -3.4013    0.5927 H   0  0  0  0  0  0  0  0  0  0  0  0
   -2.4783   -0.7872    1.5793 H   0  0  0  0  0  0  0  0  0  0  0  0
   -2.8666   -2.4880    2.0524 H   0  0  0  0  0  0  0  0  0  0  0  0
   -1.2105   -2.5080    3.6963 H   0  0  0  0  0  0  0  0  0  0  0  0
   -1.3798   -0.7059    3.6255 H   0  0  0  0  0  0  0  0  0  0  0  0
    0.6460   -0.4751    2.4684 H   0  0  0  0  0  0  0  0  0  0  0  0
    0.9813   -2.1511    3.0986 H   0  0  0  0  0  0  0  0  0  0  0  0
    3.4998   -2.4850    0.1891 H   0  0  0  0  0  0  0  0  0  0  0  0
    2.9011   -1.8403    1.7470 H   0  0  0  0  0  0  0  0  0  0  0  0
    2.8222   -0.4167   -1.0056 H   0  0  0  0  0  0  0  0  0  0  0  0
    2.0015    0.1986    0.4670 H   0  0  0  0  0  0  0  0  0  0  0  0
    4.2724    0.1546    1.6651 H   0  0  0  0  0  0  0  0  0  0  0  0
    5.4778   -1.3861    0.0422 H   0  0  0  0  0  0  0  0  0  0  0  0
    5.3558   -0.1124   -1.2128 H   0  0  0  0  0  0  0  0  0  0  0  0
    7.4824    0.3391   -0.3852 H   0  0  0  0  0  0  0  0  0  0  0  0
    7.1192   -0.2833    1.2534 H   0  0  0  0  0  0  0  0  0  0  0  0
    6.2613    1.7559    2.0231 H   0  0  0  0  0  0  0  0  0  0  0  0
    7.4984    2.3327    0.8584 H   0  0  0  0  0  0  0  0  0  0  0  0
    5.7399    2.5685   -0.9031 H   0  0  0  0  0  0  0  0  0  0  0  0
    5.3714    3.5674    0.5404 H   0  0  0  0  0  0  0  0  0  0  0  0
    3.5074    2.2971    1.1318 H   0  0  0  0  0  0  0  0  0  0  0  0
    3.5052    2.0232   -0.6360 H   0  0  0  0  0  0  0  0  0  0  0  0
   -2.7567   -3.1636   -1.3258 H   0  0  0  0  0  0  0  0  0  0  0  0
   -3.3470   -2.2588   -3.4000 H   0  0  0  0  0  0  0  0  0  0  0  0
   -1.9288   -1.1725   -3.3147 H   0  0  0  0  0  0  0  0  0  0  0  0
   -2.3533    1.1648   -2.9139 H   0  0  0  0  0  0  0  0  0  0  0  0
   -3.8629    2.9908   -2.2994 H   0  0  0  0  0  0  0  0  0  0  0  0
   -6.8882    0.1088   -1.2002 H   0  0  0  0  0  0  0  0  0  0  0  0
   -5.3596   -1.7119   -1.7908 H   0  0  0  0  0  0  0  0  0  0  0  0
   -5.8620    4.0969   -2.9844 H   0  0  0  0  0  0  0  0  0  0  0  0
   -7.0306    4.8100   -1.8257 H   0  0  0  0  0  0  0  0  0  0  0  0
   -7.2310    1.8680    0.3039 H   0  0  0  0  0  0  0  0  0  0  0  0
  1  2  1  0
  2  3  1  0
  3  4  1  0
  4  5  1  0
  5  6  1  0
  6  7  2  0
  6  8  1  0
  8  9  1  0
  9 10  1  0
 10 11  1  0
 11 12  1  0
 12 13  1  0
 13 14  1  0
 14 15  1  0
  1 16  1  0
 16 17  2  0
 16 18  1  0
 18 19  1  0
 19 20  1  0
 20 21  2  0
 21 22  1  0
 22 23  2  0
 23 24  1  0
 24 25  2  0
 23 26  1  0
 26 27  1  0
 26 28  2  3
  5  1  1  0
 15 10  1  0
 25 20  1  0
  1 29  1  6
  2 30  1  0
  2 31  1  0
  3 32  1  0
  3 33  1  0
  4 34  1  0
  4 35  1  0
  8 36  1  0
  8 37  1  0
  9 38  1  0
  9 39  1  0
 10 40  1  0
 11 41  1  0
 11 42  1  0
 12 43  1  0
 12 44  1  0
 13 45  1  0
 13 46  1  0
 14 47  1  0
 14 48  1  0
 15 49  1  0
 15 50  1  0
 18 51  1  0
 19 52  1  0
 19 53  1  0
 21 54  1  0
 22 55  1  0
 24 56  1  0
 25 57  1  0
 27 58  1  0
 27 59  1  0
 28 60  1  0
M  END
$$$$
