
     RDKit          3D

 26 25  0  0  0  0  0  0  0  0999 V2000
    1.6881   -0.4595    1.9536 N   0  0  0  0  0  0  0  0  0  0  0  0
    1.1701    0.2841    0.8012 C   0  0  1  0  0  0  0  0  0  0  0  0
   -0.3163    0.6413    1.0048 C   0  0  0  0  0  0  0  0  0  0  0  0
   -1.2303   -0.5831    1.2015 C   0  0  0  0  0  0  0  0  0  0  0  0
   -1.3455   -1.5134   -0.0212 C   0  0  0  0  0  0  0  0  0  0  0  0
   -2.0104   -0.8511   -1.2478 C   0  0  0  0  0  0  0  0  0  0  0  0
   -1.0274   -0.4873   -2.2700 N   0  0  0  0  0  4  0  0  0  0  0  0
    1.9732    1.5408    0.5640 C   0  0  0  0  0  0  0  0  0  0  0  0
    2.3999    1.8872   -0.7541 N   0  0  0  0  0  0  0  0  0  0  0  0
    2.2359    2.3149    1.5237 O   0  0  0  0  0  0  0  0  0  0  0  0
    2.6934   -0.6918    1.7797 H   0  0  0  0  0  0  0  0  0  0  0  0
    1.6459    0.1404    2.8099 H   0  0  0  0  0  0  0  0  0  0  0  0
    1.2682   -0.3608   -0.0967 H   0  0  0  0  0  0  0  0  0  0  0  0
   -0.4095    1.2841    1.9081 H   0  0  0  0  0  0  0  0  0  0  0  0
   -0.6829    1.2479    0.1500 H   0  0  0  0  0  0  0  0  0  0  0  0
   -2.2472   -0.2231    1.4715 H   0  0  0  0  0  0  0  0  0  0  0  0
   -0.8664   -1.1766    2.0678 H   0  0  0  0  0  0  0  0  0  0  0  0
   -1.9789   -2.3742    0.2867 H   0  0  0  0  0  0  0  0  0  0  0  0
   -0.3571   -1.9467   -0.2812 H   0  0  0  0  0  0  0  0  0  0  0  0
   -2.5943    0.0479   -0.9501 H   0  0  0  0  0  0  0  0  0  0  0  0
   -2.7339   -1.5695   -1.6942 H   0  0  0  0  0  0  0  0  0  0  0  0
   -0.5280   -1.3420   -2.6076 H   0  0  0  0  0  0  0  0  0  0  0  0
   -0.3361    0.1971   -1.8914 H   0  0  0  0  0  0  0  0  0  0  0  0
   -1.5236   -0.0482   -3.0788 H   0  0  0  0  0  0  0  0  0  0  0  0
    2.9440    2.7633   -0.9173 H   0  0  0  0  0  0  0  0  0  0  0  0
    2.1691    1.2783   -1.5702 H   0  0  0  0  0  0  0  0  0  0  0  0
  1  2  1  0
  2  3  1  0
  3  4  1  0
  4  5  1  0
  5  6  1  0
  6  7  1  0
  2  8  1  0
  8  9  1  0
  8 10  2  0
  1 11  1  0
  1 12  1  0
  2 13  1  6
  3 14  1  0
  3 15  1  0
  4 16  1  0
  4 17  1  0
  5 18  1  0
  5 19  1  0
  6 20  1  0
  6 21  1  0
  7 22  1  0
  7 23  1  0
  7 24  1  0
  9 25  1  0
  9 26  1  0
M  CHG  1   7   1
M  END
$$$$
