
     RDKit          3D

 75 78  0  0  0  0  0  0  0  0999 V2000
    1.9501   -0.7954   -0.6534 C   0  0  1  0  0  0  0  0  0  0  0  0
    2.3554   -0.5893    0.8258 C   0  0  0  0  0  0  0  0  0  0  0  0
    1.1068   -0.0367    1.5405 C   0  0  0  0  0  0  0  0  0  0  0  0
   -0.0148   -0.1997    0.5182 C   0  0  1  0  0  0  0  0  0  0  0  0
   -1.3403    0.5745    0.7247 C   0  0  2  0  0  0  0  0  0  0  0  0
   -1.9723    0.2569    2.0981 C   0  0  2  0  0  0  0  0  0  0  0  0
   -2.2176   -1.1202    2.2486 O   0  0  0  0  0  0  0  0  0  0  0  0
   -3.2787    1.0350    2.2706 C   0  0  0  0  0  0  0  0  0  0  0  0
   -4.3092    0.7978    1.1419 C   0  0  2  0  0  0  0  0  0  0  0  0
   -5.0824   -0.5274    1.3087 C   0  0  0  0  0  0  0  0  0  0  0  0
   -6.3425   -0.5395    0.4093 C   0  0  2  0  0  0  0  0  0  0  0  0
   -6.7237   -1.8603    0.1146 O   0  0  0  0  0  0  0  0  0  0  0  0
   -6.1718    0.2935   -0.8861 C   0  0  0  0  0  0  0  0  0  0  0  0
   -4.7126    0.3104   -1.3616 C   0  0  0  0  0  0  0  0  0  0  0  0
   -3.7198    0.9435   -0.3156 C   0  0  1  0  0  0  0  0  0  0  0  0
   -3.5859    2.4598   -0.6294 C   0  0  0  0  0  0  0  0  0  0  0  0
   -2.3268    0.2030   -0.4302 C   0  0  1  0  0  0  0  0  0  0  0  0
   -1.6636    0.3398   -1.8419 C   0  0  0  0  0  0  0  0  0  0  0  0
   -0.3081   -0.4072   -1.9639 C   0  0  2  0  0  0  0  0  0  0  0  0
   -0.5250   -1.7953   -1.8960 O   0  0  0  0  0  0  0  0  0  0  0  0
    0.6631    0.0626   -0.8432 C   0  0  2  0  0  0  0  0  0  0  0  0
    1.0160    1.5688   -1.0538 C   0  0  0  0  0  0  0  0  0  0  0  0
    3.0872   -0.8099   -1.7388 C   0  0  2  0  0  0  0  0  0  0  0  0
    4.0225   -2.0120   -1.5070 C   0  0  0  0  0  0  0  0  0  0  0  0
    3.9003    0.4778   -2.0961 C   0  0  0  0  0  0  0  0  0  0  0  0
    4.7379    1.1912   -1.0151 C   0  0  0  0  0  0  0  0  0  0  0  0
    5.8354    0.3466   -0.4341 C   0  0  0  0  0  0  0  0  0  0  0  0
    6.6539   -0.2257   -1.2046 O   0  0  0  0  0  0  0  0  0  0  0  0
    5.9938    0.2445    0.9886 N   0  0  0  0  0  0  0  0  0  0  0  0
    6.9952   -0.6211    1.6052 C   0  0  0  0  0  0  0  0  0  0  0  0
    6.5829   -2.0528    1.4864 C   0  0  0  0  0  0  0  0  0  0  0  0
    7.1901   -2.8777    0.5482 O   0  0  0  0  0  1  0  0  0  0  0  0
    5.6586   -2.5063    2.2112 O   0  0  0  0  0  0  0  0  0  0  0  0
    1.5860   -1.8500   -0.6739 H   0  0  0  0  0  0  0  0  0  0  0  0
    2.6591   -1.5586    1.2799 H   0  0  0  0  0  0  0  0  0  0  0  0
    3.1898    0.1117    0.9551 H   0  0  0  0  0  0  0  0  0  0  0  0
    1.2454    1.0366    1.7960 H   0  0  0  0  0  0  0  0  0  0  0  0
    0.8961   -0.6087    2.4698 H   0  0  0  0  0  0  0  0  0  0  0  0
   -0.2921   -1.2809    0.5636 H   0  0  0  0  0  0  0  0  0  0  0  0
   -1.1339    1.6606    0.7216 H   0  0  0  0  0  0  0  0  0  0  0  0
   -1.2818    0.6122    2.9005 H   0  0  0  0  0  0  0  0  0  0  0  0
   -1.4436   -1.5092    2.7327 H   0  0  0  0  0  0  0  0  0  0  0  0
   -3.0379    2.1202    2.3116 H   0  0  0  0  0  0  0  0  0  0  0  0
   -3.7279    0.7835    3.2563 H   0  0  0  0  0  0  0  0  0  0  0  0
   -5.0724    1.5955    1.2972 H   0  0  0  0  0  0  0  0  0  0  0  0
   -4.4243   -1.3819    1.0464 H   0  0  0  0  0  0  0  0  0  0  0  0
   -5.3983   -0.6634    2.3661 H   0  0  0  0  0  0  0  0  0  0  0  0
   -7.1750   -0.0787    0.9852 H   0  0  0  0  0  0  0  0  0  0  0  0
   -6.0160   -2.2563   -0.4582 H   0  0  0  0  0  0  0  0  0  0  0  0
   -6.5025    1.3396   -0.7049 H   0  0  0  0  0  0  0  0  0  0  0  0
   -6.8213   -0.1163   -1.6901 H   0  0  0  0  0  0  0  0  0  0  0  0
   -4.6614    0.8455   -2.3352 H   0  0  0  0  0  0  0  0  0  0  0  0
   -4.4350   -0.7436   -1.5824 H   0  0  0  0  0  0  0  0  0  0  0  0
   -2.8573    2.9570    0.0408 H   0  0  0  0  0  0  0  0  0  0  0  0
   -4.5635    2.9713   -0.5005 H   0  0  0  0  0  0  0  0  0  0  0  0
   -3.2771    2.6418   -1.6783 H   0  0  0  0  0  0  0  0  0  0  0  0
   -2.5351   -0.8844   -0.3143 H   0  0  0  0  0  0  0  0  0  0  0  0
   -2.3456   -0.0611   -2.6207 H   0  0  0  0  0  0  0  0  0  0  0  0
   -1.4995    1.4043   -2.0954 H   0  0  0  0  0  0  0  0  0  0  0  0
    0.1470   -0.1627   -2.9524 H   0  0  0  0  0  0  0  0  0  0  0  0
   -0.9134   -2.0701   -2.7673 H   0  0  0  0  0  0  0  0  0  0  0  0
    1.2420    1.7717   -2.1172 H   0  0  0  0  0  0  0  0  0  0  0  0
    1.8660    1.8897   -0.4237 H   0  0  0  0  0  0  0  0  0  0  0  0
    0.1822    2.2533   -0.8233 H   0  0  0  0  0  0  0  0  0  0  0  0
    2.5566   -1.0541   -2.6866 H   0  0  0  0  0  0  0  0  0  0  0  0
    4.8216   -2.0513   -2.2773 H   0  0  0  0  0  0  0  0  0  0  0  0
    3.4515   -2.9627   -1.5760 H   0  0  0  0  0  0  0  0  0  0  0  0
    4.4852   -1.9666   -0.5019 H   0  0  0  0  0  0  0  0  0  0  0  0
    3.2392    1.2250   -2.5636 H   0  0  0  0  0  0  0  0  0  0  0  0
    4.5946    0.2155   -2.9251 H   0  0  0  0  0  0  0  0  0  0  0  0
    5.2267    2.0656   -1.4963 H   0  0  0  0  0  0  0  0  0  0  0  0
    4.0993    1.6276   -0.2285 H   0  0  0  0  0  0  0  0  0  0  0  0
    5.3936    0.8282    1.6137 H   0  0  0  0  0  0  0  0  0  0  0  0
    7.0943   -0.3636    2.6818 H   0  0  0  0  0  0  0  0  0  0  0  0
    7.9849   -0.4609    1.1260 H   0  0  0  0  0  0  0  0  0  0  0  0
  1  2  1  0
  2  3  1  0
  3  4  1  0
  4  5  1  0
  5  6  1  0
  6  7  1  0
  6  8  1  0
  8  9  1  0
  9 10  1  0
 10 11  1  0
 11 12  1  0
 11 13  1  0
 13 14  1  0
 14 15  1  0
 15 16  1  6
 15 17  1  0
 17 18  1  0
 18 19  1  0
 19 20  1  0
 19 21  1  0
 21 22  1  6
  1 23  1  0
 23 24  1  0
 23 25  1  0
 25 26  1  0
 26 27  1  0
 27 28  2  0
 27 29  1  0
 29 30  1  0
 30 31  1  0
 31 32  1  0
 31 33  2  0
 21  1  1  0
 21  4  1  0
 17  5  1  0
 15  9  1  0
  1 34  1  1
  2 35  1  0
  2 36  1  0
  3 37  1  0
  3 38  1  0
  4 39  1  6
  5 40  1  1
  6 41  1  1
  7 42  1  0
  8 43  1  0
  8 44  1  0
  9 45  1  1
 10 46  1  0
 10 47  1  0
 11 48  1  1
 12 49  1  0
 13 50  1  0
 13 51  1  0
 14 52  1  0
 14 53  1  0
 16 54  1  0
 16 55  1  0
 16 56  1  0
 17 57  1  1
 18 58  1  0
 18 59  1  0
 19 60  1  6
 20 61  1  0
 22 62  1  0
 22 63  1  0
 22 64  1  0
 23 65  1  6
 24 66  1  0
 24 67  1  0
 24 68  1  0
 25 69  1  0
 25 70  1  0
 26 71  1  0
 26 72  1  0
 29 73  1  0
 30 74  1  0
 30 75  1  0
M  CHG  1  32  -1
M  END
$$$$
