
     RDKit          3D

 18 17  0  0  0  0  0  0  0  0999 V2000
   -1.6076   -1.3216   -0.1718 C   0  0  0  0  0  0  0  0  0  0  0  0
   -0.7499   -0.1096    0.2143 C   0  0  0  0  0  0  0  0  0  0  0  0
   -1.1327    1.0976   -0.6555 C   0  0  0  0  0  0  0  0  0  0  0  0
    0.7495   -0.4603    0.0855 C   0  0  0  0  0  0  0  0  0  0  0  0
    1.6669    0.6106    0.6908 C   0  0  0  0  0  0  0  0  0  0  0  0
    2.9919    0.1538    0.7148 O   0  0  0  0  0  0  0  0  0  0  0  0
   -1.3712   -2.1855    0.4856 H   0  0  0  0  0  0  0  0  0  0  0  0
   -1.4214   -1.6127   -1.2282 H   0  0  0  0  0  0  0  0  0  0  0  0
   -2.6862   -1.0852   -0.0493 H   0  0  0  0  0  0  0  0  0  0  0  0
   -0.9745    0.1368    1.2759 H   0  0  0  0  0  0  0  0  0  0  0  0
   -0.6268    2.0167   -0.2951 H   0  0  0  0  0  0  0  0  0  0  0  0
   -0.8549    0.9213   -1.7168 H   0  0  0  0  0  0  0  0  0  0  0  0
   -2.2272    1.2799   -0.5993 H   0  0  0  0  0  0  0  0  0  0  0  0
    0.9446   -1.4164    0.6199 H   0  0  0  0  0  0  0  0  0  0  0  0
    1.0142   -0.6126   -0.9841 H   0  0  0  0  0  0  0  0  0  0  0  0
    1.3524    0.8244    1.7344 H   0  0  0  0  0  0  0  0  0  0  0  0
    1.6056    1.5575    0.1098 H   0  0  0  0  0  0  0  0  0  0  0  0
    3.3272    0.2052   -0.2184 H   0  0  0  0  0  0  0  0  0  0  0  0
  1  2  1  0
  2  3  1  0
  2  4  1  0
  4  5  1  0
  5  6  1  0
  1  7  1  0
  1  8  1  0
  1  9  1  0
  2 10  1  0
  3 11  1  0
  3 12  1  0
  3 13  1  0
  4 14  1  0
  4 15  1  0
  5 16  1  0
  5 17  1  0
  6 18  1  0
M  END
$$$$
