
     RDKit          3D

 14 13  0  0  0  0  0  0  0  0999 V2000
    0.3301   -1.8019   -0.0181 N   0  0  0  0  0  0  0  0  0  0  0  0
   -0.0598   -0.4367   -0.3770 C   0  0  1  0  0  0  0  0  0  0  0  0
   -1.3989   -0.0821    0.2863 C   0  0  0  0  0  0  0  0  0  0  0  0
   -1.8744    1.1508   -0.1855 O   0  0  0  0  0  0  0  0  0  0  0  0
    1.0173    0.5456    0.0046 C   0  0  0  0  0  0  0  0  0  0  0  0
    1.6164    1.3291   -0.9768 O   0  0  0  0  0  0  0  0  0  0  0  0
    1.3756    0.6647    1.2076 O   0  0  0  0  0  0  0  0  0  0  0  0
    0.5267   -1.8521    1.0086 H   0  0  0  0  0  0  0  0  0  0  0  0
    1.2174   -2.0397   -0.5192 H   0  0  0  0  0  0  0  0  0  0  0  0
   -0.2036   -0.3961   -1.4798 H   0  0  0  0  0  0  0  0  0  0  0  0
   -2.1464   -0.8624    0.0281 H   0  0  0  0  0  0  0  0  0  0  0  0
   -1.3007   -0.0705    1.3969 H   0  0  0  0  0  0  0  0  0  0  0  0
   -1.4402    1.8550    0.3631 H   0  0  0  0  0  0  0  0  0  0  0  0
    2.3403    1.9964   -0.7386 H   0  0  0  0  0  0  0  0  0  0  0  0
  1  2  1  0
  2  3  1  0
  3  4  1  0
  2  5  1  0
  5  6  1  0
  5  7  2  0
  1  8  1  0
  1  9  1  0
  2 10  1  6
  3 11  1  0
  3 12  1  0
  4 13  1  0
  6 14  1  0
M  END
$$$$
