
     RDKit          3D

 40 42  0  0  0  0  0  0  0  0999 V2000
    6.1503   -2.2359    1.7700 O   0  0  0  0  0  0  0  0  0  0  0  0
    5.3484   -1.1956    1.3109 C   0  0  0  0  0  0  0  0  0  0  0  0
    4.2188   -1.0053    1.8343 O   0  0  0  0  0  0  0  0  0  0  0  0
    5.8527   -0.3017    0.2537 C   0  0  0  0  0  0  0  0  0  0  0  0
    5.1457    0.6472   -0.5000 C   0  0  0  0  0  0  0  0  0  0  0  0
    5.9793    1.4185   -1.3285 C   0  0  0  0  0  0  0  0  0  0  0  0
    7.3214    1.0751   -1.2555 C   0  0  0  0  0  0  0  0  0  0  0  0
    7.4814   -0.1761   -0.1488 S   0  0  0  0  0  0  0  0  0  0  0  0
    3.6805    0.8236   -0.5007 C   0  0  0  0  0  0  0  0  0  0  0  0
    3.2000    1.9818   -0.6357 O   0  0  0  0  0  0  0  0  0  0  0  0
    2.8080   -0.3153   -0.4535 N   0  0  0  0  0  0  0  0  0  0  0  0
    1.3948   -0.2176   -0.2120 C   0  0  0  0  0  0  0  0  0  0  0  0
    0.8845    0.6128    0.8029 C   0  0  0  0  0  0  0  0  0  0  0  0
    1.7182    1.3271    1.6003 F   0  0  0  0  0  0  0  0  0  0  0  0
   -0.4930    0.6787    1.0326 C   0  0  0  0  0  0  0  0  0  0  0  0
   -1.3851   -0.0897    0.2647 C   0  0  0  0  0  0  0  0  0  0  0  0
   -0.8685   -0.9353   -0.7322 C   0  0  0  0  0  0  0  0  0  0  0  0
    0.5084   -1.0051   -0.9624 C   0  0  0  0  0  0  0  0  0  0  0  0
    0.9788   -1.8314   -1.9305 F   0  0  0  0  0  0  0  0  0  0  0  0
   -2.8485   -0.0177    0.5090 C   0  0  0  0  0  0  0  0  0  0  0  0
   -3.7530   -0.0018   -0.5690 C   0  0  0  0  0  0  0  0  0  0  0  0
   -5.1348    0.0660   -0.3498 C   0  0  0  0  0  0  0  0  0  0  0  0
   -5.9824    0.0820   -1.4695 O   0  0  0  0  0  0  0  0  0  0  0  0
   -7.4061    0.1487   -1.4248 C   0  0  0  0  0  0  0  0  0  0  0  0
   -7.9140   -0.9482   -0.7520 F   0  0  0  0  0  0  0  0  0  0  0  0
   -7.8956    0.1446   -2.7165 F   0  0  0  0  0  0  0  0  0  0  0  0
   -7.8095    1.3146   -0.7989 F   0  0  0  0  0  0  0  0  0  0  0  0
   -5.6188    0.1170    0.9710 C   0  0  0  0  0  0  0  0  0  0  0  0
   -4.7284    0.1013    2.0465 C   0  0  0  0  0  0  0  0  0  0  0  0
   -3.3522    0.0350    1.8204 C   0  0  0  0  0  0  0  0  0  0  0  0
    5.8302   -2.8529    2.5070 H   0  0  0  0  0  0  0  0  0  0  0  0
    5.6123    2.1950   -1.9874 H   0  0  0  0  0  0  0  0  0  0  0  0
    8.1234    1.5350   -1.8168 H   0  0  0  0  0  0  0  0  0  0  0  0
    3.1995   -1.2427   -0.7349 H   0  0  0  0  0  0  0  0  0  0  0  0
   -0.8623    1.3382    1.8081 H   0  0  0  0  0  0  0  0  0  0  0  0
   -1.5297   -1.5576   -1.3223 H   0  0  0  0  0  0  0  0  0  0  0  0
   -3.3870   -0.0244   -1.5881 H   0  0  0  0  0  0  0  0  0  0  0  0
   -6.6778    0.1686    1.1800 H   0  0  0  0  0  0  0  0  0  0  0  0
   -5.1067    0.1371    3.0601 H   0  0  0  0  0  0  0  0  0  0  0  0
   -2.6833    0.0066    2.6713 H   0  0  0  0  0  0  0  0  0  0  0  0
  1  2  1  0
  2  3  2  0
  2  4  1  0
  4  5  2  0
  5  6  1  0
  6  7  2  0
  7  8  1  0
  5  9  1  0
  9 10  2  0
  9 11  1  0
 11 12  1  0
 12 13  2  0
 13 14  1  0
 13 15  1  0
 15 16  2  0
 16 17  1  0
 17 18  2  0
 18 19  1  0
 16 20  1  0
 20 21  2  0
 21 22  1  0
 22 23  1  0
 23 24  1  0
 24 25  1  0
 24 26  1  0
 24 27  1  0
 22 28  2  0
 28 29  1  0
 29 30  2  0
  8  4  1  0
 18 12  1  0
 30 20  1  0
  1 31  1  0
  6 32  1  0
  7 33  1  0
 11 34  1  0
 15 35  1  0
 17 36  1  0
 21 37  1  0
 28 38  1  0
 29 39  1  0
 30 40  1  0
M  END
$$$$
