
     RDKit          3D

 48 51  0  0  0  0  0  0  0  0999 V2000
    6.2002    0.0623    1.0713 C   0  0  0  0  0  0  0  0  0  0  0  0
    4.8411    0.1489    0.5165 N   0  0  0  0  0  0  0  0  0  0  0  0
    4.1723    1.3751    0.9783 C   0  0  0  0  0  0  0  0  0  0  0  0
    2.9102    1.5884    0.1429 C   0  0  0  0  0  0  0  0  0  0  0  0
    2.2036    0.3193   -0.0753 N   0  0  0  0  0  0  0  0  0  0  0  0
    2.5322   -0.8558    0.7419 C   0  0  0  0  0  0  0  0  0  0  0  0
    4.0591   -1.0565    0.8746 C   0  0  0  0  0  0  0  0  0  0  0  0
    0.9946    0.3248   -0.8534 C   0  0  0  0  0  0  0  0  0  0  0  0
    1.0339    0.6209   -2.2211 C   0  0  0  0  0  0  0  0  0  0  0  0
    2.2162    0.8723   -2.8372 F   0  0  0  0  0  0  0  0  0  0  0  0
   -0.1399    0.6206   -2.9741 C   0  0  0  0  0  0  0  0  0  0  0  0
   -1.3795    0.3265   -2.3740 C   0  0  0  0  0  0  0  0  0  0  0  0
   -1.4360    0.0329   -0.9884 C   0  0  0  0  0  0  0  0  0  0  0  0
   -0.2327    0.0255   -0.2462 C   0  0  0  0  0  0  0  0  0  0  0  0
   -2.6482   -0.2509   -0.4008 N   0  0  0  0  0  0  0  0  0  0  0  0
   -3.7968   -0.2754   -1.1385 C   0  0  0  0  0  0  0  0  0  0  0  0
   -3.7920    0.0030   -2.5139 C   0  0  0  0  0  0  0  0  0  0  0  0
   -5.0716   -0.0312   -3.2741 C   0  0  0  0  0  0  0  0  0  0  0  0
   -5.1003    0.2418   -4.6394 O   0  0  0  0  0  0  0  0  0  0  0  0
   -6.1521   -0.3101   -2.6867 O   0  0  0  0  0  0  0  0  0  0  0  0
   -2.5652    0.3112   -3.1320 C   0  0  0  0  0  0  0  0  0  0  0  0
   -2.5241    0.5719   -4.3665 O   0  0  0  0  0  0  0  0  0  0  0  0
   -2.7653   -0.5217    1.0080 C   0  0  0  0  0  0  0  0  0  0  0  0
   -2.6600    0.5232    1.9394 C   0  0  0  0  0  0  0  0  0  0  0  0
   -2.7770    0.2587    3.3073 C   0  0  0  0  0  0  0  0  0  0  0  0
   -3.0054   -1.0478    3.7511 C   0  0  0  0  0  0  0  0  0  0  0  0
   -3.1187   -1.3029    5.0778 F   0  0  0  0  0  0  0  0  0  0  0  0
   -3.1188   -2.0909    2.8263 C   0  0  0  0  0  0  0  0  0  0  0  0
   -3.0016   -1.8296    1.4576 C   0  0  0  0  0  0  0  0  0  0  0  0
    6.8178    0.9065    0.6967 H   0  0  0  0  0  0  0  0  0  0  0  0
    6.1839    0.0906    2.1839 H   0  0  0  0  0  0  0  0  0  0  0  0
    6.6904   -0.8784    0.7391 H   0  0  0  0  0  0  0  0  0  0  0  0
    4.8338    2.2605    0.8461 H   0  0  0  0  0  0  0  0  0  0  0  0
    3.9081    1.2982    2.0583 H   0  0  0  0  0  0  0  0  0  0  0  0
    2.2385    2.3106    0.6553 H   0  0  0  0  0  0  0  0  0  0  0  0
    3.2071    2.0205   -0.8361 H   0  0  0  0  0  0  0  0  0  0  0  0
    2.0921   -0.7168    1.7535 H   0  0  0  0  0  0  0  0  0  0  0  0
    2.0795   -1.7719    0.3015 H   0  0  0  0  0  0  0  0  0  0  0  0
    4.3675   -1.8839    0.1990 H   0  0  0  0  0  0  0  0  0  0  0  0
    4.2776   -1.3819    1.9180 H   0  0  0  0  0  0  0  0  0  0  0  0
   -0.0728    0.8431   -4.0321 H   0  0  0  0  0  0  0  0  0  0  0  0
   -0.2333   -0.2072    0.8098 H   0  0  0  0  0  0  0  0  0  0  0  0
   -4.7363   -0.5058   -0.6468 H   0  0  0  0  0  0  0  0  0  0  0  0
   -5.9707    0.2184   -5.1572 H   0  0  0  0  0  0  0  0  0  0  0  0
   -2.4842    1.5368    1.6015 H   0  0  0  0  0  0  0  0  0  0  0  0
   -2.6911    1.0667    4.0223 H   0  0  0  0  0  0  0  0  0  0  0  0
   -3.2973   -3.1020    3.1691 H   0  0  0  0  0  0  0  0  0  0  0  0
   -3.0889   -2.6414    0.7466 H   0  0  0  0  0  0  0  0  0  0  0  0
  1  2  1  0
  2  3  1  0
  3  4  1  0
  4  5  1  0
  5  6  1  0
  6  7  1  0
  5  8  1  0
  8  9  2  0
  9 10  1  0
  9 11  1  0
 11 12  2  0
 12 13  1  0
 13 14  2  0
 13 15  1  0
 15 16  1  0
 16 17  2  0
 17 18  1  0
 18 19  1  0
 18 20  2  0
 17 21  1  0
 21 22  2  0
 15 23  1  0
 23 24  2  0
 24 25  1  0
 25 26  2  0
 26 27  1  0
 26 28  1  0
 28 29  2  0
  7  2  1  0
 14  8  1  0
 29 23  1  0
 21 12  1  0
  1 30  1  0
  1 31  1  0
  1 32  1  0
  3 33  1  0
  3 34  1  0
  4 35  1  0
  4 36  1  0
  6 37  1  0
  6 38  1  0
  7 39  1  0
  7 40  1  0
 11 41  1  0
 14 42  1  0
 16 43  1  0
 19 44  1  0
 24 45  1  0
 25 46  1  0
 28 47  1  0
 29 48  1  0
M  END
$$$$
