
     RDKit          3D

 49 50  0  0  0  0  0  0  0  0999 V2000
    5.5191   -0.8715   -1.3335 C   0  0  0  0  0  0  0  0  0  0  0  0
    5.0606    0.1381   -0.2581 C   0  0  0  0  0  0  0  0  0  0  0  0
    5.5272    1.5413   -0.7010 C   0  0  0  0  0  0  0  0  0  0  0  0
    5.7237   -0.1917    1.0989 C   0  0  0  0  0  0  0  0  0  0  0  0
    3.5792    0.1560   -0.1599 N   0  0  0  0  0  0  0  0  0  0  0  0
    2.9724   -1.0490    0.4364 C   0  0  0  0  0  0  0  0  0  0  0  0
    1.4902   -1.1797    0.0375 C   0  0  0  0  0  0  0  0  0  0  0  0
    1.3571   -1.3392   -1.3535 O   0  0  0  0  0  0  0  0  0  0  0  0
    0.6325   -0.0102    0.5445 C   0  0  0  0  0  0  0  0  0  0  0  0
   -0.7400   -0.2736    0.2637 O   0  0  0  0  0  0  0  0  0  0  0  0
   -1.8039    0.5840    0.5909 C   0  0  0  0  0  0  0  0  0  0  0  0
   -1.5883    1.8064    1.2544 C   0  0  0  0  0  0  0  0  0  0  0  0
   -2.6625    2.6307    1.5830 C   0  0  0  0  0  0  0  0  0  0  0  0
   -3.9630    2.2493    1.2616 C   0  0  0  0  0  0  0  0  0  0  0  0
   -4.2093    1.0316    0.6111 C   0  0  0  0  0  0  0  0  0  0  0  0
   -3.1184    0.2011    0.2452 C   0  0  0  0  0  0  0  0  0  0  0  0
   -3.3399   -1.1460   -0.4156 C   0  0  0  0  0  0  0  0  0  0  0  0
   -4.7287   -1.2968   -1.0626 C   0  0  2  0  0  0  0  0  0  0  0  0
   -4.7869   -0.6618   -2.3188 O   0  0  0  0  0  0  0  0  0  0  0  0
   -5.8266   -0.7862   -0.1100 C   0  0  2  0  0  0  0  0  0  0  0  0
   -7.1078   -1.0208   -0.6397 O   0  0  0  0  0  0  0  0  0  0  0  0
   -5.6337    0.7005    0.2297 C   0  0  0  0  0  0  0  0  0  0  0  0
    4.9468   -0.7184   -2.2737 H   0  0  0  0  0  0  0  0  0  0  0  0
    5.3827   -1.9213   -1.0038 H   0  0  0  0  0  0  0  0  0  0  0  0
    6.6007   -0.7440   -1.5561 H   0  0  0  0  0  0  0  0  0  0  0  0
    5.2444    2.3058    0.0546 H   0  0  0  0  0  0  0  0  0  0  0  0
    5.0539    1.8181   -1.6679 H   0  0  0  0  0  0  0  0  0  0  0  0
    6.6313    1.5752   -0.8274 H   0  0  0  0  0  0  0  0  0  0  0  0
    5.3495    0.4936    1.8894 H   0  0  0  0  0  0  0  0  0  0  0  0
    6.8276   -0.0813    1.0311 H   0  0  0  0  0  0  0  0  0  0  0  0
    5.5116   -1.2369    1.4079 H   0  0  0  0  0  0  0  0  0  0  0  0
    3.2929    0.9716    0.4325 H   0  0  0  0  0  0  0  0  0  0  0  0
    3.4847   -1.9721    0.1000 H   0  0  0  0  0  0  0  0  0  0  0  0
    3.0500   -1.0078    1.5463 H   0  0  0  0  0  0  0  0  0  0  0  0
    1.1041   -2.1054    0.5180 H   0  0  0  0  0  0  0  0  0  0  0  0
    1.6411   -0.4915   -1.7851 H   0  0  0  0  0  0  0  0  0  0  0  0
    0.7693    0.0979    1.6427 H   0  0  0  0  0  0  0  0  0  0  0  0
    0.9356    0.9335    0.0417 H   0  0  0  0  0  0  0  0  0  0  0  0
   -0.5921    2.1285    1.5244 H   0  0  0  0  0  0  0  0  0  0  0  0
   -2.4859    3.5710    2.0893 H   0  0  0  0  0  0  0  0  0  0  0  0
   -4.7836    2.9082    1.5186 H   0  0  0  0  0  0  0  0  0  0  0  0
   -3.2189   -1.9324    0.3611 H   0  0  0  0  0  0  0  0  0  0  0  0
   -2.5666   -1.3233   -1.1948 H   0  0  0  0  0  0  0  0  0  0  0  0
   -4.9028   -2.3817   -1.2332 H   0  0  0  0  0  0  0  0  0  0  0  0
   -4.4485    0.2650   -2.2167 H   0  0  0  0  0  0  0  0  0  0  0  0
   -5.7502   -1.3633    0.8385 H   0  0  0  0  0  0  0  0  0  0  0  0
   -7.1970   -0.4855   -1.4709 H   0  0  0  0  0  0  0  0  0  0  0  0
   -6.3154    0.9606    1.0691 H   0  0  0  0  0  0  0  0  0  0  0  0
   -5.9185    1.3317   -0.6397 H   0  0  0  0  0  0  0  0  0  0  0  0
  1  2  1  0
  2  3  1  0
  2  4  1  0
  2  5  1  0
  5  6  1  0
  6  7  1  0
  7  8  1  0
  7  9  1  0
  9 10  1  0
 10 11  1  0
 11 12  2  0
 12 13  1  0
 13 14  2  0
 14 15  1  0
 15 16  2  0
 16 17  1  0
 17 18  1  0
 18 19  1  0
 18 20  1  0
 20 21  1  0
 20 22  1  0
 16 11  1  0
 22 15  1  0
  1 23  1  0
  1 24  1  0
  1 25  1  0
  3 26  1  0
  3 27  1  0
  3 28  1  0
  4 29  1  0
  4 30  1  0
  4 31  1  0
  5 32  1  0
  6 33  1  0
  6 34  1  0
  7 35  1  0
  8 36  1  0
  9 37  1  0
  9 38  1  0
 12 39  1  0
 13 40  1  0
 14 41  1  0
 17 42  1  0
 17 43  1  0
 18 44  1  6
 19 45  1  0
 20 46  1  1
 21 47  1  0
 22 48  1  0
 22 49  1  0
M  END
$$$$
