
     RDKit          3D

 49 50  0  0  0  0  0  0  0  0999 V2000
    0.8427   -2.5978   -0.5651 C   0  0  0  0  0  0  0  0  0  0  0  0
    1.0161   -1.1023   -0.4112 C   0  0  0  0  0  0  0  0  0  0  0  0
    2.2960   -0.4993   -0.5561 C   0  0  0  0  0  0  0  0  0  0  0  0
    3.5101   -1.3321   -0.9012 C   0  0  0  0  0  0  0  0  0  0  0  0
    2.4474    0.8875   -0.3342 C   0  0  0  0  0  0  0  0  0  0  0  0
    3.7299    1.4567   -0.4124 O   0  0  0  0  0  0  0  0  0  0  0  0
    4.0216    2.8411   -0.2337 C   0  0  0  0  0  0  0  0  0  0  0  0
    5.5223    3.0816   -0.3956 C   0  0  0  0  0  0  0  0  0  0  0  0
    5.9961    2.7608   -1.8174 C   0  0  0  0  0  0  0  0  0  0  0  0
    7.4612    3.0295   -1.9527 C   0  0  0  0  0  0  0  0  0  0  0  0
    7.9025    4.2986   -2.3136 O   0  0  0  0  0  0  0  0  0  0  0  0
    8.2961    2.1196   -1.7015 O   0  0  0  0  0  0  0  0  0  0  0  0
    1.3185    1.6695   -0.0425 C   0  0  0  0  0  0  0  0  0  0  0  0
    0.0562    1.0907    0.0310 C   0  0  0  0  0  0  0  0  0  0  0  0
   -0.1117   -0.2881   -0.1475 C   0  0  0  0  0  0  0  0  0  0  0  0
   -1.4363   -0.8498   -0.1240 N   0  0  0  0  0  0  0  0  0  0  0  0
   -2.4135   -0.5240    0.8755 C   0  0  0  0  0  0  0  0  0  0  0  0
   -2.0847    0.1626    1.8815 O   0  0  0  0  0  0  0  0  0  0  0  0
   -3.7534   -1.0225    0.7433 N   0  0  0  0  0  0  0  0  0  0  0  0
   -4.8176   -0.7092    1.6569 C   0  0  0  0  0  0  0  0  0  0  0  0
   -4.6907    0.2381    2.4799 O   0  0  0  0  0  0  0  0  0  0  0  0
   -6.0987   -1.4457    1.5991 C   0  0  0  0  0  0  0  0  0  0  0  0
   -7.3017   -0.7211    1.6646 C   0  0  0  0  0  0  0  0  0  0  0  0
   -8.5321   -1.3789    1.5959 C   0  0  0  0  0  0  0  0  0  0  0  0
   -8.5771   -2.7690    1.4714 C   0  0  0  0  0  0  0  0  0  0  0  0
  -10.1235   -3.5930    1.3878 Cl  0  0  0  0  0  0  0  0  0  0  0  0
   -7.3894   -3.5040    1.4262 C   0  0  0  0  0  0  0  0  0  0  0  0
   -6.1500   -2.8550    1.4941 C   0  0  0  0  0  0  0  0  0  0  0  0
   -4.6985   -3.8526    1.5331 Cl  0  0  0  0  0  0  0  0  0  0  0  0
   -0.0150   -2.9710    0.0321 H   0  0  0  0  0  0  0  0  0  0  0  0
    1.7291   -3.1497   -0.1910 H   0  0  0  0  0  0  0  0  0  0  0  0
    0.6790   -2.8452   -1.6346 H   0  0  0  0  0  0  0  0  0  0  0  0
    4.3439   -0.7156   -1.2963 H   0  0  0  0  0  0  0  0  0  0  0  0
    3.8640   -1.8668    0.0049 H   0  0  0  0  0  0  0  0  0  0  0  0
    3.2643   -2.0688   -1.6945 H   0  0  0  0  0  0  0  0  0  0  0  0
    3.7182    3.1542    0.7888 H   0  0  0  0  0  0  0  0  0  0  0  0
    3.4626    3.4472   -0.9798 H   0  0  0  0  0  0  0  0  0  0  0  0
    6.0728    2.4502    0.3363 H   0  0  0  0  0  0  0  0  0  0  0  0
    5.7379    4.1484   -0.1662 H   0  0  0  0  0  0  0  0  0  0  0  0
    5.7953    1.6933   -2.0555 H   0  0  0  0  0  0  0  0  0  0  0  0
    5.4441    3.3890   -2.5497 H   0  0  0  0  0  0  0  0  0  0  0  0
    8.8918    4.5012   -2.3938 H   0  0  0  0  0  0  0  0  0  0  0  0
    1.4026    2.7359    0.1144 H   0  0  0  0  0  0  0  0  0  0  0  0
   -0.8006    1.7278    0.2100 H   0  0  0  0  0  0  0  0  0  0  0  0
   -1.6900   -1.5613   -0.8459 H   0  0  0  0  0  0  0  0  0  0  0  0
   -3.9702   -1.6298   -0.0786 H   0  0  0  0  0  0  0  0  0  0  0  0
   -7.2881    0.3586    1.7526 H   0  0  0  0  0  0  0  0  0  0  0  0
   -9.4498   -0.8062    1.6380 H   0  0  0  0  0  0  0  0  0  0  0  0
   -7.4298   -4.5836    1.3510 H   0  0  0  0  0  0  0  0  0  0  0  0
  1  2  1  0
  2  3  2  0
  3  4  1  0
  3  5  1  0
  5  6  1  0
  6  7  1  0
  7  8  1  0
  8  9  1  0
  9 10  1  0
 10 11  1  0
 10 12  2  0
  5 13  2  0
 13 14  1  0
 14 15  2  0
 15 16  1  0
 16 17  1  0
 17 18  2  0
 17 19  1  0
 19 20  1  0
 20 21  2  0
 20 22  1  0
 22 23  2  0
 23 24  1  0
 24 25  2  0
 25 26  1  0
 25 27  1  0
 27 28  2  0
 28 29  1  0
 15  2  1  0
 28 22  1  0
  1 30  1  0
  1 31  1  0
  1 32  1  0
  4 33  1  0
  4 34  1  0
  4 35  1  0
  7 36  1  0
  7 37  1  0
  8 38  1  0
  8 39  1  0
  9 40  1  0
  9 41  1  0
 11 42  1  0
 13 43  1  0
 14 44  1  0
 16 45  1  0
 19 46  1  0
 23 47  1  0
 24 48  1  0
 27 49  1  0
M  END
$$$$
