
     RDKit          3D

 49 53  0  0  0  0  0  0  0  0999 V2000
    3.3780   -2.5681    2.0361 Cl  0  0  0  0  0  0  0  0  0  0  0  0
    4.0126   -1.1170    1.2669 C   0  0  0  0  0  0  0  0  0  0  0  0
    3.1639   -0.1931    0.5929 C   0  0  0  0  0  0  0  0  0  0  0  0
    1.6768   -0.4243    0.4807 C   0  0  0  0  0  0  0  0  0  0  0  0
    1.3645   -1.3224   -0.7342 C   0  0  0  0  0  0  0  0  0  0  0  0
   -0.0803   -1.5385   -0.9650 N   0  0  0  0  0  0  0  0  0  0  0  0
   -0.7552   -0.3865   -1.6072 C   0  0  0  0  0  0  0  0  0  0  0  0
   -2.2741   -0.4519   -1.4378 C   0  0  0  0  0  0  0  0  0  0  0  0
   -2.6023   -0.4853   -0.0081 N   0  0  0  0  0  0  0  0  0  0  0  0
   -1.7132   -1.1964    0.9179 C   0  0  0  0  0  0  0  0  0  0  0  0
   -0.8010   -2.1763    0.1639 C   0  0  0  0  0  0  0  0  0  0  0  0
   -3.6299    0.3642    0.5322 C   0  0  0  0  0  0  0  0  0  0  0  0
   -3.3887    1.1380    1.6291 N   0  0  0  0  0  0  0  0  0  0  0  0
   -4.7960    1.9823    1.9176 S   0  0  0  0  0  0  0  0  0  0  0  0
   -5.7269    1.3830    0.6801 C   0  0  0  0  0  0  0  0  0  0  0  0
   -7.0498    1.6505    0.3450 C   0  0  0  0  0  0  0  0  0  0  0  0
   -7.6021    0.9548   -0.7402 C   0  0  0  0  0  0  0  0  0  0  0  0
   -6.8305    0.0105   -1.4458 C   0  0  0  0  0  0  0  0  0  0  0  0
   -5.4959   -0.2409   -1.0792 C   0  0  0  0  0  0  0  0  0  0  0  0
   -4.9390    0.4742   -0.0091 C   0  0  0  0  0  0  0  0  0  0  0  0
    3.7287    0.9385   -0.0354 C   0  0  0  0  0  0  0  0  0  0  0  0
    5.1056    1.1366    0.0418 C   0  0  0  0  0  0  0  0  0  0  0  0
    5.9126    2.2527   -0.5401 C   0  0  0  0  0  0  0  0  0  0  0  0
    7.2820    1.8373   -0.0909 C   0  0  0  0  0  0  0  0  0  0  0  0
    8.3343    2.4799   -0.3445 O   0  0  0  0  0  0  0  0  0  0  0  0
    7.2770    0.6280    0.6600 N   0  0  0  0  0  0  0  0  0  0  0  0
    5.9156    0.2449    0.7083 C   0  0  0  0  0  0  0  0  0  0  0  0
    5.3988   -0.8895    1.3270 C   0  0  0  0  0  0  0  0  0  0  0  0
    1.3031   -0.8837    1.4177 H   0  0  0  0  0  0  0  0  0  0  0  0
    1.1611    0.5532    0.3875 H   0  0  0  0  0  0  0  0  0  0  0  0
    1.8534   -2.3108   -0.5923 H   0  0  0  0  0  0  0  0  0  0  0  0
    1.8200   -0.8777   -1.6474 H   0  0  0  0  0  0  0  0  0  0  0  0
   -0.4024    0.5780   -1.1860 H   0  0  0  0  0  0  0  0  0  0  0  0
   -0.5155   -0.3879   -2.6921 H   0  0  0  0  0  0  0  0  0  0  0  0
   -2.6585   -1.3700   -1.9311 H   0  0  0  0  0  0  0  0  0  0  0  0
   -2.7299    0.4371   -1.9267 H   0  0  0  0  0  0  0  0  0  0  0  0
   -2.3226   -1.7690    1.6503 H   0  0  0  0  0  0  0  0  0  0  0  0
   -1.0965   -0.4608    1.4761 H   0  0  0  0  0  0  0  0  0  0  0  0
   -1.4338   -2.9910   -0.2491 H   0  0  0  0  0  0  0  0  0  0  0  0
   -0.1019   -2.6650    0.8775 H   0  0  0  0  0  0  0  0  0  0  0  0
   -7.6364    2.3656    0.9070 H   0  0  0  0  0  0  0  0  0  0  0  0
   -8.6292    1.1357   -1.0294 H   0  0  0  0  0  0  0  0  0  0  0  0
   -7.2714   -0.5329   -2.2714 H   0  0  0  0  0  0  0  0  0  0  0  0
   -4.9332   -0.9915   -1.6129 H   0  0  0  0  0  0  0  0  0  0  0  0
    3.1103    1.6462   -0.5736 H   0  0  0  0  0  0  0  0  0  0  0  0
    5.6250    3.2280   -0.0941 H   0  0  0  0  0  0  0  0  0  0  0  0
    5.8418    2.2610   -1.6482 H   0  0  0  0  0  0  0  0  0  0  0  0
    8.0960    0.1325    1.0772 H   0  0  0  0  0  0  0  0  0  0  0  0
    6.0552   -1.5823    1.8380 H   0  0  0  0  0  0  0  0  0  0  0  0
  1  2  1  0
  2  3  2  0
  3  4  1  0
  4  5  1  0
  5  6  1  0
  6  7  1  0
  7  8  1  0
  8  9  1  0
  9 10  1  0
 10 11  1  0
  9 12  1  0
 12 13  2  0
 13 14  1  0
 14 15  1  0
 15 16  2  0
 16 17  1  0
 17 18  2  0
 18 19  1  0
 19 20  2  0
  3 21  1  0
 21 22  2  0
 22 23  1  0
 23 24  1  0
 24 25  2  0
 24 26  1  0
 26 27  1  0
 27 28  2  0
 28  2  1  0
 11  6  1  0
 20 12  1  0
 27 22  1  0
 20 15  1  0
  4 29  1  0
  4 30  1  0
  5 31  1  0
  5 32  1  0
  7 33  1  0
  7 34  1  0
  8 35  1  0
  8 36  1  0
 10 37  1  0
 10 38  1  0
 11 39  1  0
 11 40  1  0
 16 41  1  0
 17 42  1  0
 18 43  1  0
 19 44  1  0
 21 45  1  0
 23 46  1  0
 23 47  1  0
 26 48  1  0
 28 49  1  0
M  END
$$$$
