
     RDKit          3D

 25 27  0  0  0  0  0  0  0  0999 V2000
    5.2796    0.2497   -0.8563 N   0  0  0  0  0  0  0  0  0  0  0  0
    5.0872    1.1688    0.1062 C   0  0  0  0  0  0  0  0  0  0  0  0
    3.7447    1.2117    0.4151 C   0  0  0  0  0  0  0  0  0  0  0  0
    3.1724    0.2693   -0.4194 C   0  0  0  0  0  0  0  0  0  0  0  0
    4.1232   -0.3032   -1.1835 N   0  0  0  0  0  0  0  0  0  0  0  0
    1.7464   -0.0776   -0.4860 C   0  0  0  0  0  0  0  0  0  0  0  0
    1.1754   -1.0260   -1.3268 C   0  0  0  0  0  0  0  0  0  0  0  0
   -0.1713   -1.1640   -1.1990 N   0  0  0  0  0  0  0  0  0  0  0  0
   -0.6894   -0.3348   -0.2624 C   0  0  0  0  0  0  0  0  0  0  0  0
    0.5218    0.6053    0.4434 S   0  0  0  0  0  0  0  0  0  0  0  0
   -2.1309   -0.2837    0.0745 C   0  0  0  0  0  0  0  0  0  0  0  0
   -2.6143    0.5997    1.0587 C   0  0  0  0  0  0  0  0  0  0  0  0
   -3.9777    0.6381    1.3673 C   0  0  0  0  0  0  0  0  0  0  0  0
   -4.8719   -0.2016    0.6999 C   0  0  0  0  0  0  0  0  0  0  0  0
   -4.4046   -1.0819   -0.2781 C   0  0  0  0  0  0  0  0  0  0  0  0
   -3.0424   -1.1247   -0.5909 C   0  0  0  0  0  0  0  0  0  0  0  0
    6.1947   -0.0020   -1.2907 H   0  0  0  0  0  0  0  0  0  0  0  0
    5.8704    1.7670    0.5528 H   0  0  0  0  0  0  0  0  0  0  0  0
    3.2560    1.8422    1.1461 H   0  0  0  0  0  0  0  0  0  0  0  0
    1.7451   -1.6157   -2.0328 H   0  0  0  0  0  0  0  0  0  0  0  0
   -1.9441    1.2613    1.5915 H   0  0  0  0  0  0  0  0  0  0  0  0
   -4.3412    1.3200    2.1252 H   0  0  0  0  0  0  0  0  0  0  0  0
   -5.9267   -0.1700    0.9405 H   0  0  0  0  0  0  0  0  0  0  0  0
   -5.0985   -1.7323   -0.7949 H   0  0  0  0  0  0  0  0  0  0  0  0
   -2.7039   -1.8156   -1.3528 H   0  0  0  0  0  0  0  0  0  0  0  0
  1  2  1  0
  2  3  2  0
  3  4  1  0
  4  5  2  0
  4  6  1  0
  6  7  2  0
  7  8  1  0
  8  9  2  0
  9 10  1  0
  9 11  1  0
 11 12  2  0
 12 13  1  0
 13 14  2  0
 14 15  1  0
 15 16  2  0
  5  1  1  0
 10  6  1  0
 16 11  1  0
  1 17  1  0
  2 18  1  0
  3 19  1  0
  7 20  1  0
 12 21  1  0
 13 22  1  0
 14 23  1  0
 15 24  1  0
 16 25  1  0
M  END
$$$$
