
     RDKit          3D

 24 24  0  0  0  0  0  0  0  0999 V2000
   -3.2702   -0.4851   -0.1011 O   0  0  0  0  0  0  0  0  0  0  0  0
   -2.3910    0.3859    0.5557 C   0  0  0  0  0  0  0  0  0  0  0  0
   -1.0050    0.3598   -0.1157 C   0  0  1  0  0  0  0  0  0  0  0  0
   -0.1718    1.4348    0.4558 N   0  0  0  0  0  0  0  0  0  0  0  0
    1.1422    1.4957   -0.1975 C   0  0  0  0  0  0  0  0  0  0  0  0
    1.9230    0.1963    0.0433 C   0  0  2  0  0  0  0  0  0  0  0  0
    3.1644    0.2563   -0.6091 O   0  0  0  0  0  0  0  0  0  0  0  0
    1.1192   -0.9978   -0.5002 C   0  0  1  0  0  0  0  0  0  0  0  0
    1.7834   -2.2088   -0.2355 O   0  0  0  0  0  0  0  0  0  0  0  0
   -0.3083   -1.0135    0.0925 C   0  0  2  0  0  0  0  0  0  0  0  0
   -1.0555   -2.0621   -0.4736 O   0  0  0  0  0  0  0  0  0  0  0  0
   -4.1286   -0.4363    0.3945 H   0  0  0  0  0  0  0  0  0  0  0  0
   -2.2985    0.0985    1.6276 H   0  0  0  0  0  0  0  0  0  0  0  0
   -2.8063    1.4175    0.5063 H   0  0  0  0  0  0  0  0  0  0  0  0
   -1.1469    0.5429   -1.2067 H   0  0  0  0  0  0  0  0  0  0  0  0
   -0.6433    2.3519    0.2718 H   0  0  0  0  0  0  0  0  0  0  0  0
    1.0273    1.6827   -1.2898 H   0  0  0  0  0  0  0  0  0  0  0  0
    1.7176    2.3448    0.2317 H   0  0  0  0  0  0  0  0  0  0  0  0
    2.0769    0.0640    1.1406 H   0  0  0  0  0  0  0  0  0  0  0  0
    3.7457    0.8486   -0.0640 H   0  0  0  0  0  0  0  0  0  0  0  0
    1.0423   -0.8897   -1.6055 H   0  0  0  0  0  0  0  0  0  0  0  0
    1.8553   -2.3047    0.7504 H   0  0  0  0  0  0  0  0  0  0  0  0
   -0.2312   -1.2021    1.1866 H   0  0  0  0  0  0  0  0  0  0  0  0
   -1.1407   -1.8793   -1.4460 H   0  0  0  0  0  0  0  0  0  0  0  0
  1  2  1  0
  2  3  1  0
  3  4  1  0
  4  5  1  0
  5  6  1  0
  6  7  1  0
  6  8  1  0
  8  9  1  0
  8 10  1  0
 10 11  1  0
 10  3  1  0
  1 12  1  0
  2 13  1  0
  2 14  1  0
  3 15  1  6
  4 16  1  0
  5 17  1  0
  5 18  1  0
  6 19  1  1
  7 20  1  0
  8 21  1  6
  9 22  1  0
 10 23  1  1
 11 24  1  0
M  END
$$$$
