
     RDKit          3D

 28 29  0  0  0  0  0  0  0  0999 V2000
   -2.6816   -2.2077    0.3544 O   0  0  0  0  0  0  0  0  0  0  0  0
   -3.6950   -1.4846   -0.7760 S   0  0  0  0  0  6  0  0  0  0  0  0
   -4.2872   -2.5406   -1.6661 O   0  0  0  0  0  0  0  0  0  0  0  0
   -4.7985   -0.7493   -0.0681 O   0  0  0  0  0  0  0  0  0  0  0  0
   -2.7550   -0.3403   -1.7715 C   0  0  0  0  0  0  0  0  0  0  0  0
   -2.1098    0.7356   -0.8959 C   0  0  0  0  0  0  0  0  0  0  0  0
   -1.2855    1.7090   -1.7416 C   0  0  0  0  0  0  0  0  0  0  0  0
   -0.5801    3.0379   -0.7049 S   0  0  0  0  0  0  0  0  0  0  0  0
    0.7760    2.0463   -0.0844 C   0  0  0  0  0  0  0  0  0  0  0  0
    0.7153    1.3472    1.0743 N   0  0  0  0  0  0  0  0  0  0  0  0
    1.8813    0.6912    1.3015 C   0  0  0  0  0  0  0  0  0  0  0  0
    2.8592    0.8724    0.3355 C   0  0  0  0  0  0  0  0  0  0  0  0
    2.2706    1.8891   -0.8633 S   0  0  0  0  0  0  0  0  0  0  0  0
    4.1094    0.2659    0.4261 C   0  0  0  0  0  0  0  0  0  0  0  0
    4.3682   -0.5516    1.5380 C   0  0  0  0  0  0  0  0  0  0  0  0
    3.3817   -0.7433    2.5262 C   0  0  0  0  0  0  0  0  0  0  0  0
    2.1274   -0.1191    2.4112 C   0  0  0  0  0  0  0  0  0  0  0  0
   -3.2678   -2.8173    0.8701 H   0  0  0  0  0  0  0  0  0  0  0  0
   -3.4353    0.1305   -2.5131 H   0  0  0  0  0  0  0  0  0  0  0  0
   -1.9689   -0.9067   -2.3155 H   0  0  0  0  0  0  0  0  0  0  0  0
   -1.4526    0.2471   -0.1460 H   0  0  0  0  0  0  0  0  0  0  0  0
   -2.9028    1.3000   -0.3586 H   0  0  0  0  0  0  0  0  0  0  0  0
   -1.9433    2.1847   -2.4999 H   0  0  0  0  0  0  0  0  0  0  0  0
   -0.4761    1.1691   -2.2794 H   0  0  0  0  0  0  0  0  0  0  0  0
    4.8604    0.4192   -0.3378 H   0  0  0  0  0  0  0  0  0  0  0  0
    5.3305   -1.0369    1.6365 H   0  0  0  0  0  0  0  0  0  0  0  0
    3.5910   -1.3755    3.3793 H   0  0  0  0  0  0  0  0  0  0  0  0
    1.3686   -0.2657    3.1692 H   0  0  0  0  0  0  0  0  0  0  0  0
  1  2  1  0
  2  3  2  0
  2  4  2  0
  2  5  1  0
  5  6  1  0
  6  7  1  0
  7  8  1  0
  8  9  1  0
  9 10  2  0
 10 11  1  0
 11 12  2  0
 12 13  1  0
 12 14  1  0
 14 15  2  0
 15 16  1  0
 16 17  2  0
 13  9  1  0
 17 11  1  0
  1 18  1  0
  5 19  1  0
  5 20  1  0
  6 21  1  0
  6 22  1  0
  7 23  1  0
  7 24  1  0
 14 25  1  0
 15 26  1  0
 16 27  1  0
 17 28  1  0
M  END
$$$$
