
     RDKit          3D

 56 60  0  0  0  0  0  0  0  0999 V2000
   -1.9695   -0.7078    0.2785 C   0  0  2  0  0  0  0  0  0  0  0  0
   -2.9615   -1.8578    0.1791 C   0  0  0  0  0  0  0  0  0  0  0  0
   -4.3416   -1.1773    0.1317 C   0  0  0  0  0  0  0  0  0  0  0  0
   -4.1071    0.3515   -0.0385 C   0  0  2  0  0  0  0  0  0  0  0  0
   -4.3867    1.0728    1.3048 C   0  0  0  0  0  0  0  0  0  0  0  0
   -5.0040    0.8512   -1.0040 O   0  0  0  0  0  0  0  0  0  0  0  0
   -2.6160    0.4345   -0.5211 C   0  0  2  0  0  0  0  0  0  0  0  0
   -2.5757    0.1929   -2.0697 C   0  0  0  0  0  0  0  0  0  0  0  0
   -1.8432    1.7366   -0.1865 C   0  0  0  0  0  0  0  0  0  0  0  0
   -0.3381    1.6009   -0.5179 C   0  0  0  0  0  0  0  0  0  0  0  0
    0.3206    0.3484    0.1454 C   0  0  1  0  0  0  0  0  0  0  0  0
   -0.4959   -0.9647   -0.1108 C   0  0  1  0  0  0  0  0  0  0  0  0
    0.0916   -2.1259    0.7148 C   0  0  0  0  0  0  0  0  0  0  0  0
    1.5720   -2.3447    0.3944 C   0  0  0  0  0  0  0  0  0  0  0  0
    2.3888   -1.0631    0.6430 C   0  0  1  0  0  0  0  0  0  0  0  0
    3.9012   -1.3380    0.4360 C   0  0  0  0  0  0  0  0  0  0  0  0
    4.6720   -0.0589    0.4993 C   0  0  0  0  0  0  0  0  0  0  0  0
    6.0077    0.0546    0.6197 N   0  0  0  0  0  0  0  0  0  0  0  0
    6.2913    1.3497    0.5837 N   0  0  0  0  0  0  0  0  0  0  0  0
    5.1597    2.0667    0.4315 C   0  0  0  0  0  0  0  0  0  0  0  0
    4.1088    1.1824    0.3521 C   0  0  0  0  0  0  0  0  0  0  0  0
    2.6376    1.4500    0.2645 C   0  0  0  0  0  0  0  0  0  0  0  0
    1.8518    0.1714   -0.1854 C   0  0  2  0  0  0  0  0  0  0  0  0
    2.0845   -0.0317   -1.7124 C   0  0  0  0  0  0  0  0  0  0  0  0
   -1.9505   -0.4226    1.3565 H   0  0  0  0  0  0  0  0  0  0  0  0
   -2.7843   -2.4473   -0.7469 H   0  0  0  0  0  0  0  0  0  0  0  0
   -2.8808   -2.5326    1.0592 H   0  0  0  0  0  0  0  0  0  0  0  0
   -4.9167   -1.4136    1.0544 H   0  0  0  0  0  0  0  0  0  0  0  0
   -4.9172   -1.5846   -0.7289 H   0  0  0  0  0  0  0  0  0  0  0  0
   -4.2355    2.1680    1.2032 H   0  0  0  0  0  0  0  0  0  0  0  0
   -3.7430    0.6937    2.1244 H   0  0  0  0  0  0  0  0  0  0  0  0
   -5.4456    0.9148    1.6021 H   0  0  0  0  0  0  0  0  0  0  0  0
   -4.8020    1.8161   -1.1254 H   0  0  0  0  0  0  0  0  0  0  0  0
   -3.0126    1.0624   -2.6047 H   0  0  0  0  0  0  0  0  0  0  0  0
   -3.1571   -0.7061   -2.3615 H   0  0  0  0  0  0  0  0  0  0  0  0
   -1.5563    0.0638   -2.4757 H   0  0  0  0  0  0  0  0  0  0  0  0
   -2.2735    2.5917   -0.7515 H   0  0  0  0  0  0  0  0  0  0  0  0
   -1.9234    1.9772    0.8949 H   0  0  0  0  0  0  0  0  0  0  0  0
   -0.2063    1.5921   -1.6157 H   0  0  0  0  0  0  0  0  0  0  0  0
    0.1611    2.5212   -0.1489 H   0  0  0  0  0  0  0  0  0  0  0  0
    0.2596    0.5405    1.2423 H   0  0  0  0  0  0  0  0  0  0  0  0
   -0.4450   -1.2647   -1.1745 H   0  0  0  0  0  0  0  0  0  0  0  0
   -0.4565   -3.0652    0.4859 H   0  0  0  0  0  0  0  0  0  0  0  0
   -0.0230   -1.9211    1.8025 H   0  0  0  0  0  0  0  0  0  0  0  0
    1.6846   -2.6883   -0.6558 H   0  0  0  0  0  0  0  0  0  0  0  0
    1.9545   -3.1578    1.0496 H   0  0  0  0  0  0  0  0  0  0  0  0
    2.2671   -0.8143    1.7235 H   0  0  0  0  0  0  0  0  0  0  0  0
    4.0823   -1.8209   -0.5477 H   0  0  0  0  0  0  0  0  0  0  0  0
    4.2695   -2.0239    1.2292 H   0  0  0  0  0  0  0  0  0  0  0  0
    7.2557    1.7402    0.6666 H   0  0  0  0  0  0  0  0  0  0  0  0
    5.1090    3.1467    0.3893 H   0  0  0  0  0  0  0  0  0  0  0  0
    2.2967    1.7753    1.2712 H   0  0  0  0  0  0  0  0  0  0  0  0
    2.4694    2.2914   -0.4416 H   0  0  0  0  0  0  0  0  0  0  0  0
    1.7685    0.8586   -2.2915 H   0  0  0  0  0  0  0  0  0  0  0  0
    1.5432   -0.9097   -2.1118 H   0  0  0  0  0  0  0  0  0  0  0  0
    3.1600   -0.1748   -1.9405 H   0  0  0  0  0  0  0  0  0  0  0  0
  1  2  1  0
  2  3  1  0
  3  4  1  0
  4  5  1  0
  4  6  1  6
  4  7  1  0
  7  8  1  6
  7  9  1  0
  9 10  1  0
 10 11  1  0
 11 12  1  0
 12 13  1  0
 13 14  1  0
 14 15  1  0
 15 16  1  0
 16 17  1  0
 17 18  2  0
 18 19  1  0
 19 20  1  0
 20 21  2  0
 21 22  1  0
 22 23  1  0
 23 24  1  6
  7  1  1  0
 23 11  1  0
 12  1  1  0
 23 15  1  0
 21 17  1  0
  1 25  1  1
  2 26  1  0
  2 27  1  0
  3 28  1  0
  3 29  1  0
  5 30  1  0
  5 31  1  0
  5 32  1  0
  6 33  1  0
  8 34  1  0
  8 35  1  0
  8 36  1  0
  9 37  1  0
  9 38  1  0
 10 39  1  0
 10 40  1  0
 11 41  1  1
 12 42  1  6
 13 43  1  0
 13 44  1  0
 14 45  1  0
 14 46  1  0
 15 47  1  1
 16 48  1  0
 16 49  1  0
 19 50  1  0
 20 51  1  0
 22 52  1  0
 22 53  1  0
 24 54  1  0
 24 55  1  0
 24 56  1  0
M  END
$$$$
