
     RDKit          3D

 49 50  0  0  0  0  0  0  0  0999 V2000
   -0.4141    0.9095   -0.2842 C   0  0  2  0  0  0  0  0  0  0  0  0
   -0.7703    2.3415   -0.7485 C   0  0  0  0  0  0  0  0  0  0  0  0
   -0.2479    3.4519    0.1961 C   0  0  0  0  0  0  0  0  0  0  0  0
    1.2859    3.5245    0.2281 C   0  0  0  0  0  0  0  0  0  0  0  0
   -0.8221    4.8105   -0.2279 C   0  0  0  0  0  0  0  0  0  0  0  0
    0.9707    0.5669   -0.6329 N   0  0  0  0  0  0  0  0  0  0  0  0
    1.7454   -0.4345    0.0500 C   0  0  0  0  0  0  0  0  0  0  0  0
    1.0467   -1.4184    1.1713 S   0  0  0  0  0  0  0  0  0  0  0  0
    3.0863   -0.6931   -0.3968 N   0  0  0  0  0  0  0  0  0  0  0  0
    4.1269   -1.2465    0.4264 C   0  0  0  0  0  0  0  0  0  0  0  0
    4.2111   -0.9463    1.7986 C   0  0  0  0  0  0  0  0  0  0  0  0
    5.2499   -1.4728    2.5728 C   0  0  0  0  0  0  0  0  0  0  0  0
    6.2192   -2.2885    1.9833 C   0  0  0  0  0  0  0  0  0  0  0  0
    6.1561   -2.5718    0.6165 C   0  0  0  0  0  0  0  0  0  0  0  0
    5.1192   -2.0466   -0.1610 C   0  0  0  0  0  0  0  0  0  0  0  0
   -1.3447   -0.0827   -0.9302 C   0  0  0  0  0  0  0  0  0  0  0  0
   -1.2267   -0.3361   -2.1606 O   0  0  0  0  0  0  0  0  0  0  0  0
   -2.3766   -0.7151   -0.1590 N   0  0  0  0  0  0  0  0  0  0  0  0
   -3.3084   -1.6768   -0.7579 C   0  0  2  0  0  0  0  0  0  0  0  0
   -4.2924   -1.0032   -1.7007 C   0  0  0  0  0  0  0  0  0  0  0  0
   -5.5380   -1.6601   -1.6192 O   0  0  0  0  0  0  0  0  0  0  0  0
   -5.4673   -2.5877   -0.5591 C   0  0  2  0  0  0  0  0  0  0  0  0
   -6.6172   -2.4742    0.2351 O   0  0  0  0  0  0  0  0  0  0  0  0
   -4.2177   -2.3067    0.2585 C   0  0  0  0  0  0  0  0  0  0  0  0
   -0.5391    0.8669    0.8198 H   0  0  0  0  0  0  0  0  0  0  0  0
   -1.8803    2.4278   -0.7827 H   0  0  0  0  0  0  0  0  0  0  0  0
   -0.4047    2.5141   -1.7852 H   0  0  0  0  0  0  0  0  0  0  0  0
   -0.6085    3.2449    1.2282 H   0  0  0  0  0  0  0  0  0  0  0  0
    1.7078    2.6287    0.7280 H   0  0  0  0  0  0  0  0  0  0  0  0
    1.6190    4.4083    0.8131 H   0  0  0  0  0  0  0  0  0  0  0  0
    1.6979    3.6034   -0.8007 H   0  0  0  0  0  0  0  0  0  0  0  0
   -0.4888    5.6061    0.4723 H   0  0  0  0  0  0  0  0  0  0  0  0
   -0.4881    5.0730   -1.2550 H   0  0  0  0  0  0  0  0  0  0  0  0
   -1.9325    4.7835   -0.2074 H   0  0  0  0  0  0  0  0  0  0  0  0
    1.4189    1.0505   -1.4441 H   0  0  0  0  0  0  0  0  0  0  0  0
    3.3165   -0.4707   -1.3916 H   0  0  0  0  0  0  0  0  0  0  0  0
    3.4877   -0.2909    2.2656 H   0  0  0  0  0  0  0  0  0  0  0  0
    5.3080   -1.2413    3.6286 H   0  0  0  0  0  0  0  0  0  0  0  0
    7.0234   -2.6938    2.5836 H   0  0  0  0  0  0  0  0  0  0  0  0
    6.9123   -3.1964    0.1586 H   0  0  0  0  0  0  0  0  0  0  0  0
    5.0820   -2.2702   -1.2198 H   0  0  0  0  0  0  0  0  0  0  0  0
   -2.4252   -0.5142    0.8657 H   0  0  0  0  0  0  0  0  0  0  0  0
   -2.7446   -2.4738   -1.2943 H   0  0  0  0  0  0  0  0  0  0  0  0
   -4.4371    0.0635   -1.4205 H   0  0  0  0  0  0  0  0  0  0  0  0
   -3.9173   -1.0454   -2.7454 H   0  0  0  0  0  0  0  0  0  0  0  0
   -5.4073   -3.6114   -0.9975 H   0  0  0  0  0  0  0  0  0  0  0  0
   -6.6358   -3.2748    0.8222 H   0  0  0  0  0  0  0  0  0  0  0  0
   -4.4562   -1.5933    1.0795 H   0  0  0  0  0  0  0  0  0  0  0  0
   -3.7820   -3.2384    0.6805 H   0  0  0  0  0  0  0  0  0  0  0  0
  1  2  1  0
  2  3  1  0
  3  4  1  0
  3  5  1  0
  1  6  1  0
  6  7  1  0
  7  8  2  0
  7  9  1  0
  9 10  1  0
 10 11  2  0
 11 12  1  0
 12 13  2  0
 13 14  1  0
 14 15  2  0
  1 16  1  0
 16 17  2  0
 16 18  1  0
 18 19  1  0
 19 20  1  0
 20 21  1  0
 21 22  1  0
 22 23  1  0
 22 24  1  0
 15 10  1  0
 24 19  1  0
  1 25  1  1
  2 26  1  0
  2 27  1  0
  3 28  1  0
  4 29  1  0
  4 30  1  0
  4 31  1  0
  5 32  1  0
  5 33  1  0
  5 34  1  0
  6 35  1  0
  9 36  1  0
 11 37  1  0
 12 38  1  0
 13 39  1  0
 14 40  1  0
 15 41  1  0
 18 42  1  0
 19 43  1  6
 20 44  1  0
 20 45  1  0
 22 46  1  6
 23 47  1  0
 24 48  1  0
 24 49  1  0
M  END
$$$$
