
     RDKit          3D

 19 18  0  0  0  0  0  0  0  0999 V2000
   -0.9070    0.3374   -0.1383 C   0  0  1  0  0  0  0  0  0  0  0  0
   -2.0751    1.1491    0.2080 N   0  0  0  0  0  0  0  0  0  0  0  0
   -0.5688   -0.6081    1.0255 C   0  0  0  0  0  0  0  0  0  0  0  0
    0.9424   -1.5924    0.7037 S   0  0  0  0  0  0  0  0  0  0  0  0
    2.0944   -0.2937    1.1703 C   0  0  0  0  0  0  0  0  0  0  0  0
    2.7107    0.5878    0.1309 C   0  0  0  0  0  0  0  0  0  0  0  0
    2.3956   -0.1496    2.3442 O   0  0  0  0  0  0  0  0  0  0  0  0
   -1.1559   -0.4287   -1.4122 C   0  0  0  0  0  0  0  0  0  0  0  0
   -2.1730   -1.3773   -1.4712 O   0  0  0  0  0  0  0  0  0  0  0  0
   -0.4437   -0.2091   -2.4284 O   0  0  0  0  0  0  0  0  0  0  0  0
   -0.0483    1.0258   -0.2904 H   0  0  0  0  0  0  0  0  0  0  0  0
   -2.2552    1.8262   -0.5692 H   0  0  0  0  0  0  0  0  0  0  0  0
   -2.9182    0.5342    0.2887 H   0  0  0  0  0  0  0  0  0  0  0  0
   -0.4437   -0.0232    1.9625 H   0  0  0  0  0  0  0  0  0  0  0  0
   -1.4105   -1.3148    1.1892 H   0  0  0  0  0  0  0  0  0  0  0  0
    2.4369    1.6452    0.3285 H   0  0  0  0  0  0  0  0  0  0  0  0
    3.8155    0.4842    0.1613 H   0  0  0  0  0  0  0  0  0  0  0  0
    2.3528    0.3051   -0.8812 H   0  0  0  0  0  0  0  0  0  0  0  0
   -2.3490   -1.8980   -2.3220 H   0  0  0  0  0  0  0  0  0  0  0  0
  1  2  1  0
  1  3  1  0
  3  4  1  0
  4  5  1  0
  5  6  1  0
  5  7  2  0
  1  8  1  0
  8  9  1  0
  8 10  2  0
  1 11  1  6
  2 12  1  0
  2 13  1  0
  3 14  1  0
  3 15  1  0
  6 16  1  0
  6 17  1  0
  6 18  1  0
  9 19  1  0
M  END
$$$$
