
     RDKit          3D

 35 36  0  0  0  0  0  0  0  0999 V2000
    4.3707   -0.7796   -1.0353 N   0  0  0  0  0  0  0  0  0  0  0  0
    4.3326   -0.0856    0.2554 C   0  0  2  0  0  0  0  0  0  0  0  0
    3.2066    0.9689    0.3124 C   0  0  0  0  0  0  0  0  0  0  0  0
    1.8421    0.3356    0.2156 C   0  0  0  0  0  0  0  0  0  0  0  0
    1.2630   -0.2663    1.3425 C   0  0  0  0  0  0  0  0  0  0  0  0
    0.0097   -0.8792    1.2521 C   0  0  0  0  0  0  0  0  0  0  0  0
   -0.8325   -1.7583    2.9803 I   0  0  0  0  0  0  0  0  0  0  0  0
   -0.6810   -0.8931    0.0316 C   0  0  0  0  0  0  0  0  0  0  0  0
   -1.9380   -1.5029   -0.0397 O   0  0  0  0  0  0  0  0  0  0  0  0
   -3.1419   -0.8054   -0.2199 C   0  0  0  0  0  0  0  0  0  0  0  0
   -4.3048   -1.5368   -0.4778 C   0  0  0  0  0  0  0  0  0  0  0  0
   -5.5314   -0.8896   -0.6658 C   0  0  0  0  0  0  0  0  0  0  0  0
   -7.2286   -2.0957   -1.0601 I   0  0  0  0  0  0  0  0  0  0  0  0
   -5.6006    0.5165   -0.5896 C   0  0  0  0  0  0  0  0  0  0  0  0
   -6.8034    1.2005   -0.7730 O   0  0  0  0  0  0  0  0  0  0  0  0
   -4.4360    1.2516   -0.3220 C   0  0  0  0  0  0  0  0  0  0  0  0
   -4.4915    3.3617   -0.1933 I   0  0  0  0  0  0  0  0  0  0  0  0
   -3.2158    0.5960   -0.1347 C   0  0  0  0  0  0  0  0  0  0  0  0
   -0.0932   -0.3128   -1.1079 C   0  0  0  0  0  0  0  0  0  0  0  0
   -1.0298   -0.3936   -3.0050 I   0  0  0  0  0  0  0  0  0  0  0  0
    1.1608    0.2990   -1.0106 C   0  0  0  0  0  0  0  0  0  0  0  0
    5.6616    0.5627    0.5145 C   0  0  0  0  0  0  0  0  0  0  0  0
    6.3327    0.3122    1.7075 O   0  0  0  0  0  0  0  0  0  0  0  0
    6.1626    1.3496   -0.3338 O   0  0  0  0  0  0  0  0  0  0  0  0
    3.5340   -1.4021   -1.1115 H   0  0  0  0  0  0  0  0  0  0  0  0
    4.3173   -0.0821   -1.8136 H   0  0  0  0  0  0  0  0  0  0  0  0
    4.1597   -0.8380    1.0576 H   0  0  0  0  0  0  0  0  0  0  0  0
    3.2729    1.5261    1.2734 H   0  0  0  0  0  0  0  0  0  0  0  0
    3.3424    1.7175   -0.4995 H   0  0  0  0  0  0  0  0  0  0  0  0
    1.7867   -0.2594    2.2905 H   0  0  0  0  0  0  0  0  0  0  0  0
   -4.2521   -2.6165   -0.5373 H   0  0  0  0  0  0  0  0  0  0  0  0
   -7.6788    0.7338   -0.9688 H   0  0  0  0  0  0  0  0  0  0  0  0
   -2.3321    1.1819    0.0797 H   0  0  0  0  0  0  0  0  0  0  0  0
    1.6100    0.7352   -1.8941 H   0  0  0  0  0  0  0  0  0  0  0  0
    7.2262    0.7481    1.9023 H   0  0  0  0  0  0  0  0  0  0  0  0
  1  2  1  0
  2  3  1  0
  3  4  1  0
  4  5  2  0
  5  6  1  0
  6  7  1  0
  6  8  2  0
  8  9  1  0
  9 10  1  0
 10 11  2  0
 11 12  1  0
 12 13  1  0
 12 14  2  0
 14 15  1  0
 14 16  1  0
 16 17  1  0
 16 18  2  0
  8 19  1  0
 19 20  1  0
 19 21  2  0
  2 22  1  0
 22 23  1  0
 22 24  2  0
 21  4  1  0
 18 10  1  0
  1 25  1  0
  1 26  1  0
  2 27  1  1
  3 28  1  0
  3 29  1  0
  5 30  1  0
 11 31  1  0
 15 32  1  0
 18 33  1  0
 21 34  1  0
 23 35  1  0
M  END
$$$$
