
     RDKit          3D

 56 59  0  0  0  0  0  0  0  0999 V2000
    2.1503    0.7188   -3.4238 C   0  0  1  0  0  0  0  0  0  0  0  0
    2.9600    1.3306   -2.2800 C   0  0  0  0  0  0  0  0  0  0  0  0
    2.8860    0.3823   -1.1794 N   0  0  0  0  0  0  0  0  0  0  0  0
    3.5329    0.6186    0.0854 C   0  0  0  0  0  0  0  0  0  0  0  0
    4.0910    1.7304    0.2943 O   0  0  0  0  0  0  0  0  0  0  0  0
    3.5219   -0.3822    1.1189 N   0  0  0  0  0  0  0  0  0  0  0  0
    4.3609   -0.3354    2.2857 C   0  0  0  0  0  0  0  0  0  0  0  0
    3.8852   -0.8607    3.4975 C   0  0  0  0  0  0  0  0  0  0  0  0
    4.6906   -0.8471    4.6403 C   0  0  0  0  0  0  0  0  0  0  0  0
    5.9851   -0.3221    4.5794 C   0  0  0  0  0  0  0  0  0  0  0  0
    6.9959   -0.3085    6.0129 Cl  0  0  0  0  0  0  0  0  0  0  0  0
    6.4764    0.1822    3.3713 C   0  0  0  0  0  0  0  0  0  0  0  0
    5.6727    0.1708    2.2270 C   0  0  0  0  0  0  0  0  0  0  0  0
    2.2169   -0.8567   -1.5514 C   0  0  2  0  0  0  0  0  0  0  0  0
    2.0191   -0.7670   -3.0652 C   0  0  0  0  0  0  0  0  0  0  0  0
    0.8921   -0.9965   -0.8418 C   0  0  0  0  0  0  0  0  0  0  0  0
    0.5480   -2.1317   -0.4143 O   0  0  0  0  0  0  0  0  0  0  0  0
    0.0252    0.1371   -0.6644 N   0  0  0  0  0  0  0  0  0  0  0  0
   -1.3623    0.0308   -0.3038 C   0  0  0  0  0  0  0  0  0  0  0  0
   -2.1625   -1.0153   -0.7958 C   0  0  0  0  0  0  0  0  0  0  0  0
   -3.5165   -1.0890   -0.4583 C   0  0  0  0  0  0  0  0  0  0  0  0
   -4.0965   -0.1151    0.3695 C   0  0  0  0  0  0  0  0  0  0  0  0
   -3.3041    0.9441    0.8397 C   0  0  0  0  0  0  0  0  0  0  0  0
   -1.9496    1.0203    0.5016 C   0  0  0  0  0  0  0  0  0  0  0  0
   -1.2053    2.0534    0.9707 F   0  0  0  0  0  0  0  0  0  0  0  0
   -5.4959   -0.1880    0.7096 N   0  0  0  0  0  0  0  0  0  0  0  0
   -6.4194   -0.2378   -0.2999 C   0  0  0  0  0  0  0  0  0  0  0  0
   -7.7847   -0.2994   -0.0144 C   0  0  0  0  0  0  0  0  0  0  0  0
   -8.2067   -0.3120    1.3125 C   0  0  0  0  0  0  0  0  0  0  0  0
   -7.2642   -0.2670    2.3376 C   0  0  0  0  0  0  0  0  0  0  0  0
   -5.9023   -0.2089    2.0220 C   0  0  0  0  0  0  0  0  0  0  0  0
   -5.0576   -0.1912    2.9592 O   0  0  0  0  0  0  0  0  0  0  0  0
    0.8693    1.3259   -3.4611 O   0  0  0  0  0  0  0  0  0  0  0  0
    0.3608    1.3220   -4.7769 C   0  0  0  0  0  0  0  0  0  0  0  0
    2.7218    0.8466   -4.3760 H   0  0  0  0  0  0  0  0  0  0  0  0
    4.0219    1.4590   -2.5843 H   0  0  0  0  0  0  0  0  0  0  0  0
    2.5456    2.3152   -1.9707 H   0  0  0  0  0  0  0  0  0  0  0  0
    2.8044   -1.1383    1.0760 H   0  0  0  0  0  0  0  0  0  0  0  0
    2.8852   -1.2717    3.5574 H   0  0  0  0  0  0  0  0  0  0  0  0
    4.3083   -1.2464    5.5710 H   0  0  0  0  0  0  0  0  0  0  0  0
    7.4836    0.5753    3.3154 H   0  0  0  0  0  0  0  0  0  0  0  0
    6.0858    0.5336    1.2953 H   0  0  0  0  0  0  0  0  0  0  0  0
    2.8720   -1.7253   -1.3153 H   0  0  0  0  0  0  0  0  0  0  0  0
    1.0489   -1.1978   -3.3991 H   0  0  0  0  0  0  0  0  0  0  0  0
    2.8342   -1.3304   -3.5711 H   0  0  0  0  0  0  0  0  0  0  0  0
    0.4377    1.0937   -0.7358 H   0  0  0  0  0  0  0  0  0  0  0  0
   -1.7487   -1.7624   -1.4601 H   0  0  0  0  0  0  0  0  0  0  0  0
   -4.1159   -1.9056   -0.8409 H   0  0  0  0  0  0  0  0  0  0  0  0
   -3.7418    1.7164    1.4597 H   0  0  0  0  0  0  0  0  0  0  0  0
   -6.1042   -0.2176   -1.3369 H   0  0  0  0  0  0  0  0  0  0  0  0
   -8.5094   -0.3342   -0.8176 H   0  0  0  0  0  0  0  0  0  0  0  0
   -9.2624   -0.3588    1.5465 H   0  0  0  0  0  0  0  0  0  0  0  0
   -7.5899   -0.2832    3.3705 H   0  0  0  0  0  0  0  0  0  0  0  0
    0.9518    2.0030   -5.4278 H   0  0  0  0  0  0  0  0  0  0  0  0
   -0.6827    1.6974   -4.7539 H   0  0  0  0  0  0  0  0  0  0  0  0
    0.3413    0.2959   -5.2068 H   0  0  0  0  0  0  0  0  0  0  0  0
  1  2  1  0
  2  3  1  0
  3  4  1  0
  4  5  2  0
  4  6  1  0
  6  7  1  0
  7  8  2  0
  8  9  1  0
  9 10  2  0
 10 11  1  0
 10 12  1  0
 12 13  2  0
  3 14  1  0
 14 15  1  0
 14 16  1  0
 16 17  2  0
 16 18  1  0
 18 19  1  0
 19 20  2  0
 20 21  1  0
 21 22  2  0
 22 23  1  0
 23 24  2  0
 24 25  1  0
 22 26  1  0
 26 27  1  0
 27 28  2  0
 28 29  1  0
 29 30  2  0
 30 31  1  0
 31 32  2  0
  1 33  1  0
 33 34  1  0
 15  1  1  0
 24 19  1  0
 31 26  1  0
 13  7  1  0
  1 35  1  6
  2 36  1  0
  2 37  1  0
  6 38  1  0
  8 39  1  0
  9 40  1  0
 12 41  1  0
 13 42  1  0
 14 43  1  6
 15 44  1  0
 15 45  1  0
 18 46  1  0
 20 47  1  0
 21 48  1  0
 23 49  1  0
 27 50  1  0
 28 51  1  0
 29 52  1  0
 30 53  1  0
 34 54  1  0
 34 55  1  0
 34 56  1  0
M  END
$$$$
