
     RDKit          3D

 36 38  0  0  0  0  0  0  0  0999 V2000
    2.8263    4.1727   -1.4974 C   0  0  0  0  0  0  0  0  0  0  0  0
    1.9256    3.1210   -1.8291 O   0  0  0  0  0  0  0  0  0  0  0  0
    1.9679    1.8353   -1.2692 C   0  0  0  0  0  0  0  0  0  0  0  0
    1.0179    0.8983   -1.6860 C   0  0  0  0  0  0  0  0  0  0  0  0
    1.0140   -0.4067   -1.1658 C   0  0  0  0  0  0  0  0  0  0  0  0
   -0.0482   -1.3789   -1.6102 C   0  0  0  0  0  0  0  0  0  0  0  0
   -1.1903   -1.3648   -0.6440 C   0  0  0  0  0  0  0  0  0  0  0  0
   -1.3130   -2.2668    0.3687 N   0  0  0  0  0  0  0  0  0  0  0  0
   -2.4207   -1.8371    0.9952 C   0  0  0  0  0  0  0  0  0  0  0  0
   -2.9909   -2.3868    2.0939 N   0  0  0  0  0  0  0  0  0  0  0  0
   -4.1158   -1.7974    2.6013 C   0  0  0  0  0  0  0  0  0  0  0  0
   -4.7131   -2.3215    3.6981 F   0  0  0  0  0  0  0  0  0  0  0  0
   -4.6420   -0.6774    2.0089 N   0  0  0  0  0  0  0  0  0  0  0  0
   -4.0667   -0.1192    0.9022 C   0  0  0  0  0  0  0  0  0  0  0  0
   -4.6307    1.0490    0.3050 N   0  0  0  0  0  0  0  0  0  0  0  0
   -2.9247   -0.7331    0.3955 C   0  0  0  0  0  0  0  0  0  0  0  0
   -2.1552   -0.4089   -0.6510 N   0  0  0  0  0  0  0  0  0  0  0  0
    1.9638   -0.7725   -0.1903 C   0  0  0  0  0  0  0  0  0  0  0  0
    1.9262   -2.0717    0.3433 O   0  0  0  0  0  0  0  0  0  0  0  0
    2.8119   -2.5606    1.3449 C   0  0  0  0  0  0  0  0  0  0  0  0
    2.9209    0.1726    0.2257 C   0  0  0  0  0  0  0  0  0  0  0  0
    2.9245    1.4622   -0.3097 C   0  0  0  0  0  0  0  0  0  0  0  0
    3.8673    3.8766   -1.7460 H   0  0  0  0  0  0  0  0  0  0  0  0
    2.7458    4.4178   -0.4172 H   0  0  0  0  0  0  0  0  0  0  0  0
    2.5632    5.0748   -2.0868 H   0  0  0  0  0  0  0  0  0  0  0  0
    0.2761    1.1917   -2.4192 H   0  0  0  0  0  0  0  0  0  0  0  0
    0.3714   -2.4053   -1.6828 H   0  0  0  0  0  0  0  0  0  0  0  0
   -0.4225   -1.1142   -2.6229 H   0  0  0  0  0  0  0  0  0  0  0  0
   -4.2046    1.4875   -0.5407 H   0  0  0  0  0  0  0  0  0  0  0  0
   -5.4881    1.4823    0.7139 H   0  0  0  0  0  0  0  0  0  0  0  0
   -2.2563    0.3938   -1.3109 H   0  0  0  0  0  0  0  0  0  0  0  0
    2.7137   -1.9545    2.2702 H   0  0  0  0  0  0  0  0  0  0  0  0
    2.5477   -3.6120    1.5796 H   0  0  0  0  0  0  0  0  0  0  0  0
    3.8590   -2.5310    0.9763 H   0  0  0  0  0  0  0  0  0  0  0  0
    3.6665   -0.0784    0.9675 H   0  0  0  0  0  0  0  0  0  0  0  0
    3.6731    2.1632    0.0336 H   0  0  0  0  0  0  0  0  0  0  0  0
  1  2  1  0
  2  3  1  0
  3  4  2  0
  4  5  1  0
  5  6  1  0
  6  7  1  0
  7  8  2  0
  8  9  1  0
  9 10  2  0
 10 11  1  0
 11 12  1  0
 11 13  2  0
 13 14  1  0
 14 15  1  0
 14 16  2  0
 16 17  1  0
  5 18  2  0
 18 19  1  0
 19 20  1  0
 18 21  1  0
 21 22  2  0
 22  3  1  0
 17  7  1  0
 16  9  1  0
  1 23  1  0
  1 24  1  0
  1 25  1  0
  4 26  1  0
  6 27  1  0
  6 28  1  0
 15 29  1  0
 15 30  1  0
 17 31  1  0
 20 32  1  0
 20 33  1  0
 20 34  1  0
 21 35  1  0
 22 36  1  0
M  END
$$$$
