
     RDKit          3D

 53 56  0  0  0  0  0  0  0  0999 V2000
   -1.2037   -0.8587   -0.5076 C   0  0  2  0  0  0  0  0  0  0  0  0
   -2.3123   -1.0432   -1.5372 C   0  0  0  0  0  0  0  0  0  0  0  0
   -3.5746   -1.3093   -0.6964 C   0  0  0  0  0  0  0  0  0  0  0  0
   -3.1662   -1.1041    0.7865 C   0  0  2  0  0  0  0  0  0  0  0  0
   -4.2501   -0.5772    1.7163 C   0  0  0  0  0  0  0  0  0  0  0  0
   -5.6059   -0.1488    1.2308 C   0  0  0  0  0  0  0  0  0  0  0  0
   -4.0126   -0.5120    2.9131 O   0  0  0  0  0  0  0  0  0  0  0  0
   -1.8973   -0.2234    0.7058 C   0  0  2  0  0  0  0  0  0  0  0  0
   -2.3000    1.2725    0.4894 C   0  0  0  0  0  0  0  0  0  0  0  0
   -0.9392   -0.3503    1.9113 C   0  0  0  0  0  0  0  0  0  0  0  0
    0.4224    0.3251    1.6207 C   0  0  0  0  0  0  0  0  0  0  0  0
    1.0841   -0.1572    0.2884 C   0  0  1  0  0  0  0  0  0  0  0  0
    0.0852   -0.1150   -0.9174 C   0  0  1  0  0  0  0  0  0  0  0  0
    0.7293   -0.7771   -2.1470 C   0  0  0  0  0  0  0  0  0  0  0  0
    2.0055   -0.0456   -2.5522 C   0  0  0  0  0  0  0  0  0  0  0  0
    2.9713    0.0480   -1.3941 C   0  0  0  0  0  0  0  0  0  0  0  0
    4.2841   -0.1191   -1.6402 C   0  0  0  0  0  0  0  0  0  0  0  0
    5.3049    0.0855   -0.6045 C   0  0  0  0  0  0  0  0  0  0  0  0
    6.5180   -0.1145   -0.8777 O   0  0  0  0  0  0  0  0  0  0  0  0
    4.9237    0.5927    0.7480 C   0  0  0  0  0  0  0  0  0  0  0  0
    3.4872    0.1868    1.0888 C   0  0  0  0  0  0  0  0  0  0  0  0
    2.4599    0.5482   -0.0337 C   0  0  2  0  0  0  0  0  0  0  0  0
    2.3105    2.0895   -0.1133 C   0  0  0  0  0  0  0  0  0  0  0  0
   -0.8889   -1.8956   -0.2289 H   0  0  0  0  0  0  0  0  0  0  0  0
   -2.0948   -1.9006   -2.2110 H   0  0  0  0  0  0  0  0  0  0  0  0
   -2.4343   -0.1217   -2.1479 H   0  0  0  0  0  0  0  0  0  0  0  0
   -3.9408   -2.3473   -0.8541 H   0  0  0  0  0  0  0  0  0  0  0  0
   -4.3651   -0.6039   -1.0249 H   0  0  0  0  0  0  0  0  0  0  0  0
   -2.8781   -2.1062    1.1816 H   0  0  0  0  0  0  0  0  0  0  0  0
   -6.0950   -0.9839    0.6874 H   0  0  0  0  0  0  0  0  0  0  0  0
   -5.5058    0.7308    0.5614 H   0  0  0  0  0  0  0  0  0  0  0  0
   -6.2544    0.1376    2.0863 H   0  0  0  0  0  0  0  0  0  0  0  0
   -1.4359    1.9309    0.2838 H   0  0  0  0  0  0  0  0  0  0  0  0
   -2.7901    1.6734    1.4015 H   0  0  0  0  0  0  0  0  0  0  0  0
   -3.0115    1.3906   -0.3534 H   0  0  0  0  0  0  0  0  0  0  0  0
   -0.7627   -1.4225    2.1503 H   0  0  0  0  0  0  0  0  0  0  0  0
   -1.3922    0.1172    2.8119 H   0  0  0  0  0  0  0  0  0  0  0  0
    0.2868    1.4239    1.6177 H   0  0  0  0  0  0  0  0  0  0  0  0
    1.0876    0.0879    2.4761 H   0  0  0  0  0  0  0  0  0  0  0  0
    1.3171   -1.2355    0.4524 H   0  0  0  0  0  0  0  0  0  0  0  0
   -0.1648    0.9276   -1.1942 H   0  0  0  0  0  0  0  0  0  0  0  0
    0.0250   -0.7479   -3.0061 H   0  0  0  0  0  0  0  0  0  0  0  0
    0.9658   -1.8435   -1.9334 H   0  0  0  0  0  0  0  0  0  0  0  0
    1.7546    0.9805   -2.8977 H   0  0  0  0  0  0  0  0  0  0  0  0
    2.4546   -0.5878   -3.4137 H   0  0  0  0  0  0  0  0  0  0  0  0
    4.6202   -0.4103   -2.6287 H   0  0  0  0  0  0  0  0  0  0  0  0
    5.6114    0.1710    1.5129 H   0  0  0  0  0  0  0  0  0  0  0  0
    5.0284    1.6979    0.7680 H   0  0  0  0  0  0  0  0  0  0  0  0
    3.2165    0.6810    2.0458 H   0  0  0  0  0  0  0  0  0  0  0  0
    3.4765   -0.9115    1.2687 H   0  0  0  0  0  0  0  0  0  0  0  0
    2.1338    2.5322    0.8888 H   0  0  0  0  0  0  0  0  0  0  0  0
    1.4782    2.3892   -0.7799 H   0  0  0  0  0  0  0  0  0  0  0  0
    3.2337    2.5536   -0.5206 H   0  0  0  0  0  0  0  0  0  0  0  0
  1  2  1  0
  2  3  1  0
  3  4  1  0
  4  5  1  0
  5  6  1  0
  5  7  2  0
  4  8  1  0
  8  9  1  6
  8 10  1  0
 10 11  1  0
 11 12  1  0
 12 13  1  0
 13 14  1  0
 14 15  1  0
 15 16  1  0
 16 17  2  0
 17 18  1  0
 18 19  2  0
 18 20  1  0
 20 21  1  0
 21 22  1  0
 22 23  1  6
  8  1  1  0
 22 12  1  0
 13  1  1  0
 22 16  1  0
  1 24  1  1
  2 25  1  0
  2 26  1  0
  3 27  1  0
  3 28  1  0
  4 29  1  1
  6 30  1  0
  6 31  1  0
  6 32  1  0
  9 33  1  0
  9 34  1  0
  9 35  1  0
 10 36  1  0
 10 37  1  0
 11 38  1  0
 11 39  1  0
 12 40  1  1
 13 41  1  6
 14 42  1  0
 14 43  1  0
 15 44  1  0
 15 45  1  0
 17 46  1  0
 20 47  1  0
 20 48  1  0
 21 49  1  0
 21 50  1  0
 23 51  1  0
 23 52  1  0
 23 53  1  0
M  END
$$$$
