
     RDKit          3D

 50 50  0  0  0  0  0  0  0  0999 V2000
   -3.9975   -0.0828   -3.0328 N   0  0  0  0  0  0  0  0  0  0  0  0
   -3.8921   -0.7681   -1.7417 C   0  0  1  0  0  0  0  0  0  0  0  0
   -4.5531    0.0371   -0.5969 C   0  0  0  0  0  0  0  0  0  0  0  0
   -3.8560    1.3721   -0.2907 C   0  0  0  0  0  0  0  0  0  0  0  0
   -2.4663    1.1661    0.2378 C   0  0  0  0  0  0  0  0  0  0  0  0
   -2.3069    0.8221    1.4407 O   0  0  0  0  0  0  0  0  0  0  0  0
   -1.3317    1.3203   -0.6276 N   0  0  0  0  0  0  0  0  0  0  0  0
    0.0330    1.0306   -0.1778 C   0  0  1  0  0  0  0  0  0  0  0  0
    0.9822    0.9281   -1.3844 C   0  0  0  0  0  0  0  0  0  0  0  0
    2.6763    0.4487   -0.8781 S   0  0  0  0  0  0  0  0  0  0  0  0
    2.3896   -1.3535   -0.9101 C   0  0  0  0  0  0  0  0  0  0  0  0
    3.6002   -2.0570   -0.3701 C   0  0  0  0  0  0  0  0  0  0  0  0
    4.6265   -2.4719   -1.2351 C   0  0  0  0  0  0  0  0  0  0  0  0
    5.7685   -3.0962   -0.7234 C   0  0  0  0  0  0  0  0  0  0  0  0
    5.8982   -3.3004    0.6532 C   0  0  0  0  0  0  0  0  0  0  0  0
    4.8879   -2.8767    1.5212 C   0  0  0  0  0  0  0  0  0  0  0  0
    3.7442   -2.2523    1.0137 C   0  0  0  0  0  0  0  0  0  0  0  0
    0.4939    2.1050    0.7724 C   0  0  0  0  0  0  0  0  0  0  0  0
    0.3389    3.3187    0.4648 O   0  0  0  0  0  0  0  0  0  0  0  0
    1.1338    1.7489    2.0065 N   0  0  0  0  0  0  0  0  0  0  0  0
    1.5514    2.7466    2.9872 C   0  0  0  0  0  0  0  0  0  0  0  0
    0.3563    3.3246    3.6745 C   0  0  0  0  0  0  0  0  0  0  0  0
   -0.1003    4.5917    3.3261 O   0  0  0  0  0  0  0  0  0  0  0  0
   -0.2555    2.6518    4.5465 O   0  0  0  0  0  0  0  0  0  0  0  0
   -4.5390   -2.1182   -1.8505 C   0  0  0  0  0  0  0  0  0  0  0  0
   -5.8495   -2.2291   -2.3069 O   0  0  0  0  0  0  0  0  0  0  0  0
   -3.9047   -3.1522   -1.5082 O   0  0  0  0  0  0  0  0  0  0  0  0
   -3.3301    0.7209   -3.0521 H   0  0  0  0  0  0  0  0  0  0  0  0
   -4.9634    0.3001   -3.1567 H   0  0  0  0  0  0  0  0  0  0  0  0
   -2.8151   -0.9226   -1.5070 H   0  0  0  0  0  0  0  0  0  0  0  0
   -5.6153    0.2443   -0.8537 H   0  0  0  0  0  0  0  0  0  0  0  0
   -4.5585   -0.5789    0.3303 H   0  0  0  0  0  0  0  0  0  0  0  0
   -3.8390    2.0211   -1.1910 H   0  0  0  0  0  0  0  0  0  0  0  0
   -4.4489    1.9119    0.4791 H   0  0  0  0  0  0  0  0  0  0  0  0
   -1.4943    1.6297   -1.6129 H   0  0  0  0  0  0  0  0  0  0  0  0
    0.0248    0.0500    0.3437 H   0  0  0  0  0  0  0  0  0  0  0  0
    1.0406    1.9120   -1.8977 H   0  0  0  0  0  0  0  0  0  0  0  0
    0.5829    0.1959   -2.1190 H   0  0  0  0  0  0  0  0  0  0  0  0
    2.1892   -1.6769   -1.9542 H   0  0  0  0  0  0  0  0  0  0  0  0
    1.5027   -1.6161   -0.2969 H   0  0  0  0  0  0  0  0  0  0  0  0
    4.5429   -2.3110   -2.3029 H   0  0  0  0  0  0  0  0  0  0  0  0
    6.5548   -3.4184   -1.3938 H   0  0  0  0  0  0  0  0  0  0  0  0
    6.7834   -3.7824    1.0477 H   0  0  0  0  0  0  0  0  0  0  0  0
    4.9926   -3.0288    2.5877 H   0  0  0  0  0  0  0  0  0  0  0  0
    2.9729   -1.9192    1.6975 H   0  0  0  0  0  0  0  0  0  0  0  0
    1.3221    0.7416    2.2120 H   0  0  0  0  0  0  0  0  0  0  0  0
    2.2078    2.2680    3.7458 H   0  0  0  0  0  0  0  0  0  0  0  0
    2.1376    3.5480    2.4881 H   0  0  0  0  0  0  0  0  0  0  0  0
   -0.9175    4.9903    3.7727 H   0  0  0  0  0  0  0  0  0  0  0  0
   -6.3006   -3.1334   -2.3765 H   0  0  0  0  0  0  0  0  0  0  0  0
  1  2  1  0
  2  3  1  0
  3  4  1  0
  4  5  1  0
  5  6  2  0
  5  7  1  0
  7  8  1  0
  8  9  1  0
  9 10  1  0
 10 11  1  0
 11 12  1  0
 12 13  2  0
 13 14  1  0
 14 15  2  0
 15 16  1  0
 16 17  2  0
  8 18  1  0
 18 19  2  0
 18 20  1  0
 20 21  1  0
 21 22  1  0
 22 23  1  0
 22 24  2  0
  2 25  1  0
 25 26  1  0
 25 27  2  0
 17 12  1  0
  1 28  1  0
  1 29  1  0
  2 30  1  1
  3 31  1  0
  3 32  1  0
  4 33  1  0
  4 34  1  0
  7 35  1  0
  8 36  1  1
  9 37  1  0
  9 38  1  0
 11 39  1  0
 11 40  1  0
 13 41  1  0
 14 42  1  0
 15 43  1  0
 16 44  1  0
 17 45  1  0
 20 46  1  0
 21 47  1  0
 21 48  1  0
 23 49  1  0
 26 50  1  0
M  END
$$$$
