
     RDKit          3D

 10  9  0  0  0  0  0  0  0  0999 V2000
    1.5694    0.1808    0.2147 O   0  0  0  0  0  0  0  0  0  0  0  0
    0.2769   -0.0827   -0.2652 C   0  0  0  0  0  0  0  0  0  0  0  0
   -0.2867   -1.2783    0.4380 C   0  0  0  0  0  0  0  0  0  0  0  0
   -1.0170   -2.2217   -0.2739 O   0  0  0  0  0  1  0  0  0  0  0  0
   -0.1389   -1.4157    1.6816 O   0  0  0  0  0  0  0  0  0  0  0  0
   -0.6161    1.1013   -0.0401 C   0  0  0  0  0  0  0  0  0  0  0  0
   -1.5308    1.4756   -1.0164 O   0  0  0  0  0  1  0  0  0  0  0  0
   -0.5711    1.7370    1.0466 O   0  0  0  0  0  0  0  0  0  0  0  0
    1.9910    0.8088   -0.4290 H   0  0  0  0  0  0  0  0  0  0  0  0
    0.3232   -0.3052   -1.3563 H   0  0  0  0  0  0  0  0  0  0  0  0
  1  2  1  0
  2  3  1  0
  3  4  1  0
  3  5  2  0
  2  6  1  0
  6  7  1  0
  6  8  2  0
  1  9  1  0
  2 10  1  0
M  CHG  2   4  -1   7  -1
M  END
$$$$
