
     RDKit          3D

 34 35  0  0  0  0  0  0  0  0999 V2000
    4.6642   -1.7858    0.6570 N   0  0  0  0  0  0  0  0  0  0  0  0
    3.3576   -2.2863    0.9392 C   0  0  0  0  0  0  0  0  0  0  0  0
    3.1858   -3.0768    1.9050 O   0  0  0  0  0  0  0  0  0  0  0  0
    2.1862   -1.8431    0.1229 C   0  0  0  0  0  0  0  0  0  0  0  0
    1.6103   -0.2342    0.7055 S   0  0  0  0  0  4  0  0  0  0  0  0
    0.9274   -0.5559    2.0293 O   0  0  0  0  0  0  0  0  0  0  0  0
    0.2688    0.2235   -0.4410 C   0  0  0  0  0  0  0  0  0  0  0  0
   -0.9337   -0.6901   -0.2955 C   0  0  0  0  0  0  0  0  0  0  0  0
   -1.8296   -0.5593    0.7841 C   0  0  0  0  0  0  0  0  0  0  0  0
   -2.9201   -1.4250    0.9088 C   0  0  0  0  0  0  0  0  0  0  0  0
   -3.1267   -2.4328   -0.0354 C   0  0  0  0  0  0  0  0  0  0  0  0
   -2.2414   -2.5788   -1.1052 C   0  0  0  0  0  0  0  0  0  0  0  0
   -1.1495   -1.7155   -1.2351 C   0  0  0  0  0  0  0  0  0  0  0  0
   -0.1208    1.6895   -0.3554 C   0  0  0  0  0  0  0  0  0  0  0  0
   -0.5563    2.3480   -1.5209 C   0  0  0  0  0  0  0  0  0  0  0  0
   -0.9575    3.6862   -1.4749 C   0  0  0  0  0  0  0  0  0  0  0  0
   -0.9415    4.3808   -0.2641 C   0  0  0  0  0  0  0  0  0  0  0  0
   -0.5301    3.7365    0.9041 C   0  0  0  0  0  0  0  0  0  0  0  0
   -0.1276    2.3981    0.8640 C   0  0  0  0  0  0  0  0  0  0  0  0
    5.4799   -2.0855    1.2358 H   0  0  0  0  0  0  0  0  0  0  0  0
    4.8181   -1.1120   -0.1257 H   0  0  0  0  0  0  0  0  0  0  0  0
    1.3632   -2.5853    0.2010 H   0  0  0  0  0  0  0  0  0  0  0  0
    2.4842   -1.7619   -0.9434 H   0  0  0  0  0  0  0  0  0  0  0  0
    0.7076    0.0723   -1.4523 H   0  0  0  0  0  0  0  0  0  0  0  0
   -1.6862    0.2070    1.5333 H   0  0  0  0  0  0  0  0  0  0  0  0
   -3.6041   -1.3160    1.7405 H   0  0  0  0  0  0  0  0  0  0  0  0
   -3.9710   -3.1027    0.0639 H   0  0  0  0  0  0  0  0  0  0  0  0
   -2.3996   -3.3633   -1.8339 H   0  0  0  0  0  0  0  0  0  0  0  0
   -0.4709   -1.8508   -2.0681 H   0  0  0  0  0  0  0  0  0  0  0  0
   -0.5875    1.8228   -2.4677 H   0  0  0  0  0  0  0  0  0  0  0  0
   -1.2853    4.1836   -2.3786 H   0  0  0  0  0  0  0  0  0  0  0  0
   -1.2543    5.4164   -0.2298 H   0  0  0  0  0  0  0  0  0  0  0  0
   -0.5281    4.2732    1.8440 H   0  0  0  0  0  0  0  0  0  0  0  0
    0.1686    1.9233    1.7884 H   0  0  0  0  0  0  0  0  0  0  0  0
  1  2  1  0
  2  3  2  0
  2  4  1  0
  4  5  1  0
  5  6  2  0
  5  7  1  0
  7  8  1  0
  8  9  2  0
  9 10  1  0
 10 11  2  0
 11 12  1  0
 12 13  2  0
  7 14  1  0
 14 15  2  0
 15 16  1  0
 16 17  2  0
 17 18  1  0
 18 19  2  0
 13  8  1  0
 19 14  1  0
  1 20  1  0
  1 21  1  0
  4 22  1  0
  4 23  1  0
  7 24  1  0
  9 25  1  0
 10 26  1  0
 11 27  1  0
 12 28  1  0
 13 29  1  0
 15 30  1  0
 16 31  1  0
 17 32  1  0
 18 33  1  0
 19 34  1  0
M  END
$$$$
