
     RDKit          3D

 34 35  0  0  0  0  0  0  0  0999 V2000
   -6.3128    1.1830    0.5667 N   0  0  0  0  0  0  0  0  0  0  0  0
   -5.4351   -0.3045    0.6345 S   0  0  0  0  0  6  0  0  0  0  0  0
   -5.9435   -1.2351   -0.4308 O   0  0  0  0  0  0  0  0  0  0  0  0
   -5.6378   -0.9512    1.9764 O   0  0  0  0  0  0  0  0  0  0  0  0
   -3.7226    0.0145    0.3807 C   0  0  0  0  0  0  0  0  0  0  0  0
   -3.1799   -0.0267   -0.9093 C   0  0  0  0  0  0  0  0  0  0  0  0
   -1.8223    0.2388   -1.1126 C   0  0  0  0  0  0  0  0  0  0  0  0
   -0.9854    0.5495   -0.0249 C   0  0  0  0  0  0  0  0  0  0  0  0
   -1.5432    0.6095    1.2650 C   0  0  0  0  0  0  0  0  0  0  0  0
   -2.9005    0.3424    1.4653 C   0  0  0  0  0  0  0  0  0  0  0  0
    0.4554    0.8389   -0.2221 C   0  0  0  0  0  0  0  0  0  0  0  0
    1.0605    1.5566    0.6206 O   0  0  0  0  0  0  0  0  0  0  0  0
    1.1757    0.3017   -1.3441 N   0  0  0  0  0  0  0  0  0  0  0  0
    2.5736    0.6368   -1.6090 C   0  0  0  0  0  0  0  0  0  0  0  0
    3.4785   -0.0747   -0.6343 C   0  0  0  0  0  0  0  0  0  0  0  0
    4.1742    0.6392    0.3615 C   0  0  0  0  0  0  0  0  0  0  0  0
    4.0605    1.9882    0.4588 F   0  0  0  0  0  0  0  0  0  0  0  0
    4.9960   -0.0389    1.2677 C   0  0  0  0  0  0  0  0  0  0  0  0
    5.1308   -1.4268    1.1919 C   0  0  0  0  0  0  0  0  0  0  0  0
    4.4442   -2.1429    0.2093 C   0  0  0  0  0  0  0  0  0  0  0  0
    3.6201   -1.4739   -0.7012 C   0  0  0  0  0  0  0  0  0  0  0  0
    2.9599   -2.1896   -1.6469 F   0  0  0  0  0  0  0  0  0  0  0  0
   -7.3098    0.9599    0.7845 H   0  0  0  0  0  0  0  0  0  0  0  0
   -5.9601    1.7810    1.3474 H   0  0  0  0  0  0  0  0  0  0  0  0
   -3.8085   -0.2554   -1.7606 H   0  0  0  0  0  0  0  0  0  0  0  0
   -1.4416    0.2263   -2.1248 H   0  0  0  0  0  0  0  0  0  0  0  0
   -0.9269    0.8537    2.1215 H   0  0  0  0  0  0  0  0  0  0  0  0
   -3.3096    0.3937    2.4663 H   0  0  0  0  0  0  0  0  0  0  0  0
    0.7184   -0.3961   -1.9718 H   0  0  0  0  0  0  0  0  0  0  0  0
    2.7068    1.7393   -1.5754 H   0  0  0  0  0  0  0  0  0  0  0  0
    2.8377    0.3169   -2.6404 H   0  0  0  0  0  0  0  0  0  0  0  0
    5.5295    0.5123    2.0314 H   0  0  0  0  0  0  0  0  0  0  0  0
    5.7675   -1.9477    1.8954 H   0  0  0  0  0  0  0  0  0  0  0  0
    4.5503   -3.2187    0.1540 H   0  0  0  0  0  0  0  0  0  0  0  0
  1  2  1  0
  2  3  2  0
  2  4  2  0
  2  5  1  0
  5  6  2  0
  6  7  1  0
  7  8  2  0
  8  9  1  0
  9 10  2  0
  8 11  1  0
 11 12  2  0
 11 13  1  0
 13 14  1  0
 14 15  1  0
 15 16  2  0
 16 17  1  0
 16 18  1  0
 18 19  2  0
 19 20  1  0
 20 21  2  0
 21 22  1  0
 10  5  1  0
 21 15  1  0
  1 23  1  0
  1 24  1  0
  6 25  1  0
  7 26  1  0
  9 27  1  0
 10 28  1  0
 13 29  1  0
 14 30  1  0
 14 31  1  0
 18 32  1  0
 19 33  1  0
 20 34  1  0
M  END
$$$$
