
     RDKit          3D

 43 46  0  0  0  0  0  0  0  0999 V2000
   -6.6720    0.0048    1.3786 C   0  0  0  0  0  0  0  0  0  0  0  0
   -6.4374    0.3568   -0.3484 S   0  0  0  0  0  6  0  0  0  0  0  0
   -7.1779    1.6139   -0.7099 O   0  0  0  0  0  0  0  0  0  0  0  0
   -6.9813   -0.7769   -1.1719 O   0  0  0  0  0  0  0  0  0  0  0  0
   -4.7194    0.5594   -0.6749 C   0  0  0  0  0  0  0  0  0  0  0  0
   -3.9260   -0.5542   -0.9844 C   0  0  0  0  0  0  0  0  0  0  0  0
   -2.5501   -0.4071   -1.2182 C   0  0  0  0  0  0  0  0  0  0  0  0
   -1.7651   -1.5628   -1.5573 N   0  0  0  0  0  0  0  0  0  0  0  0
   -0.4026   -1.7578   -1.1529 C   0  0  0  0  0  0  0  0  0  0  0  0
    0.1573   -0.9766   -0.1890 N   0  0  0  0  0  0  0  0  0  0  0  0
    1.4415   -1.1590    0.2177 C   0  0  0  0  0  0  0  0  0  0  0  0
    1.9742   -0.3165    1.2512 N   0  0  0  0  0  0  0  0  0  0  0  0
    3.3749   -0.0542    1.4361 C   0  0  0  0  0  0  0  0  0  0  0  0
    3.9407    0.0220    2.7318 C   0  0  0  0  0  0  0  0  0  0  0  0
    2.9641   -0.2702    4.1640 Cl  0  0  0  0  0  0  0  0  0  0  0  0
    5.3160    0.3095    2.8907 C   0  0  0  0  0  0  0  0  0  0  0  0
    6.1317    0.5389    1.7692 C   0  0  0  0  0  0  0  0  0  0  0  0
    5.5399    0.4781    0.5124 C   0  0  0  0  0  0  0  0  0  0  0  0
    4.2208    0.1995    0.3495 C   0  0  0  0  0  0  0  0  0  0  0  0
    3.9125    0.2356   -0.9982 O   0  0  0  0  0  0  0  0  0  0  0  0
    5.1110    0.5392   -1.7239 C   0  0  0  0  0  0  0  0  0  0  0  0
    6.1249    0.6885   -0.7213 O   0  0  0  0  0  0  0  0  0  0  0  0
    2.1929   -2.2036   -0.3396 C   0  0  0  0  0  0  0  0  0  0  0  0
    1.6021   -3.0029   -1.3164 C   0  0  0  0  0  0  0  0  0  0  0  0
    0.3214   -2.7692   -1.7016 N   0  0  0  0  0  0  0  0  0  0  0  0
   -1.9803    0.8780   -1.1734 C   0  0  0  0  0  0  0  0  0  0  0  0
   -2.7689    1.9875   -0.8579 C   0  0  0  0  0  0  0  0  0  0  0  0
   -4.1328    1.8294   -0.6018 C   0  0  0  0  0  0  0  0  0  0  0  0
   -6.2759    0.8451    1.9853 H   0  0  0  0  0  0  0  0  0  0  0  0
   -6.1314   -0.9272    1.6437 H   0  0  0  0  0  0  0  0  0  0  0  0
   -7.7539   -0.1239    1.5883 H   0  0  0  0  0  0  0  0  0  0  0  0
   -4.3738   -1.5393   -1.0302 H   0  0  0  0  0  0  0  0  0  0  0  0
   -2.2367   -2.3487   -2.0600 H   0  0  0  0  0  0  0  0  0  0  0  0
    1.2959    0.1441    1.8988 H   0  0  0  0  0  0  0  0  0  0  0  0
    5.7489    0.3559    3.8818 H   0  0  0  0  0  0  0  0  0  0  0  0
    7.1842    0.7641    1.8798 H   0  0  0  0  0  0  0  0  0  0  0  0
    5.3673   -0.2982   -2.4062 H   0  0  0  0  0  0  0  0  0  0  0  0
    4.9873    1.4869   -2.2886 H   0  0  0  0  0  0  0  0  0  0  0  0
    3.2050   -2.4083   -0.0159 H   0  0  0  0  0  0  0  0  0  0  0  0
    2.1586   -3.8163   -1.7625 H   0  0  0  0  0  0  0  0  0  0  0  0
   -0.9339    1.0287   -1.4030 H   0  0  0  0  0  0  0  0  0  0  0  0
   -2.3231    2.9730   -0.8184 H   0  0  0  0  0  0  0  0  0  0  0  0
   -4.7305    2.6969   -0.3526 H   0  0  0  0  0  0  0  0  0  0  0  0
  1  2  1  0
  2  3  2  0
  2  4  2  0
  2  5  1  0
  5  6  2  0
  6  7  1  0
  7  8  1  0
  8  9  1  0
  9 10  2  0
 10 11  1  0
 11 12  1  0
 12 13  1  0
 13 14  2  0
 14 15  1  0
 14 16  1  0
 16 17  2  0
 17 18  1  0
 18 19  2  0
 19 20  1  0
 20 21  1  0
 21 22  1  0
 11 23  2  0
 23 24  1  0
 24 25  2  0
  7 26  2  0
 26 27  1  0
 27 28  2  0
 28  5  1  0
 25  9  1  0
 19 13  1  0
 22 18  1  0
  1 29  1  0
  1 30  1  0
  1 31  1  0
  6 32  1  0
  8 33  1  0
 12 34  1  0
 16 35  1  0
 17 36  1  0
 21 37  1  0
 21 38  1  0
 23 39  1  0
 24 40  1  0
 26 41  1  0
 27 42  1  0
 28 43  1  0
M  END
$$$$
