
     RDKit          3D

 49 53  0  0  0  0  0  0  0  0999 V2000
    2.4913   -1.6651   -1.1602 C   0  0  2  0  0  0  0  0  0  0  0  0
    2.5859   -2.8214   -2.0556 N   0  0  0  0  0  0  0  0  0  0  0  0
    1.0165   -1.2647   -0.9805 C   0  0  0  0  0  0  0  0  0  0  0  0
    0.2899   -2.3344   -0.3792 O   0  0  0  0  0  0  0  0  0  0  0  0
   -1.0786   -2.2902   -0.0752 C   0  0  0  0  0  0  0  0  0  0  0  0
   -1.6704   -3.4119    0.5086 C   0  0  0  0  0  0  0  0  0  0  0  0
   -2.9934   -3.4096    0.8141 N   0  0  0  0  0  0  0  0  0  0  0  0
   -3.7840   -2.3304    0.5770 C   0  0  0  0  0  0  0  0  0  0  0  0
   -3.2446   -1.1675    0.0000 C   0  0  0  0  0  0  0  0  0  0  0  0
   -1.8786   -1.1630   -0.3329 C   0  0  0  0  0  0  0  0  0  0  0  0
   -4.0882    0.0235   -0.2756 C   0  0  0  0  0  0  0  0  0  0  0  0
   -3.7485    0.8325   -1.2546 N   0  0  0  0  0  0  0  0  0  0  0  0
   -4.4641    2.0577   -1.6662 C   0  0  0  0  0  0  0  0  0  0  0  0
   -5.6687    2.2720   -0.8112 C   0  0  0  0  0  0  0  0  0  0  0  0
   -6.5146    3.2449   -0.8696 N   0  0  0  0  0  0  0  0  0  0  0  0
   -7.4697    3.0572    0.1485 N   0  0  0  0  0  0  0  0  0  0  0  0
   -7.1966    1.9802    0.8195 C   0  0  0  0  0  0  0  0  0  0  0  0
   -6.0068    1.3846    0.2497 C   0  0  0  0  0  0  0  0  0  0  0  0
   -5.2948    0.3111    0.5542 C   0  0  0  0  0  0  0  0  0  0  0  0
    3.3169   -0.4977   -1.7423 C   0  0  0  0  0  0  0  0  0  0  0  0
    3.4152    0.6599   -0.7897 C   0  0  0  0  0  0  0  0  0  0  0  0
    4.1755    0.7413    0.2899 C   0  0  0  0  0  0  0  0  0  0  0  0
    5.1407   -0.1892    0.8719 C   0  0  0  0  0  0  0  0  0  0  0  0
    5.7556    0.1687    2.0097 C   0  0  0  0  0  0  0  0  0  0  0  0
    5.4924    1.5000    2.7134 C   0  0  0  0  0  0  0  0  0  0  0  0
    4.4598    2.3895    2.0387 C   0  0  0  0  0  0  0  0  0  0  0  0
    3.8784    1.9951    0.9093 C   0  0  0  0  0  0  0  0  0  0  0  0
    2.8889    2.6897    0.1628 N   0  0  0  0  0  0  0  0  0  0  0  0
    2.6192    1.9005   -0.8342 C   0  0  0  0  0  0  0  0  0  0  0  0
    2.9083   -1.9436   -0.1652 H   0  0  0  0  0  0  0  0  0  0  0  0
    3.5910   -3.1025   -2.1290 H   0  0  0  0  0  0  0  0  0  0  0  0
    2.1030   -3.6334   -1.6070 H   0  0  0  0  0  0  0  0  0  0  0  0
    0.9469   -0.3736   -0.3208 H   0  0  0  0  0  0  0  0  0  0  0  0
    0.5724   -1.0217   -1.9709 H   0  0  0  0  0  0  0  0  0  0  0  0
   -1.0764   -4.2923    0.7162 H   0  0  0  0  0  0  0  0  0  0  0  0
   -4.8355   -2.3974    0.8187 H   0  0  0  0  0  0  0  0  0  0  0  0
   -1.4421   -0.2789   -0.7779 H   0  0  0  0  0  0  0  0  0  0  0  0
   -4.7766    1.9597   -2.7266 H   0  0  0  0  0  0  0  0  0  0  0  0
   -3.7827    2.9282   -1.5680 H   0  0  0  0  0  0  0  0  0  0  0  0
   -7.7794    1.6177    1.6556 H   0  0  0  0  0  0  0  0  0  0  0  0
   -5.5792   -0.3077    1.3945 H   0  0  0  0  0  0  0  0  0  0  0  0
    2.8630   -0.1532   -2.6969 H   0  0  0  0  0  0  0  0  0  0  0  0
    4.3465   -0.8461   -1.9752 H   0  0  0  0  0  0  0  0  0  0  0  0
    5.3555   -1.1405    0.4021 H   0  0  0  0  0  0  0  0  0  0  0  0
    6.4735   -0.5108    2.4510 H   0  0  0  0  0  0  0  0  0  0  0  0
    6.4492    2.0589    2.7774 H   0  0  0  0  0  0  0  0  0  0  0  0
    5.1504    1.2883    3.7479 H   0  0  0  0  0  0  0  0  0  0  0  0
    4.2003    3.3435    2.4793 H   0  0  0  0  0  0  0  0  0  0  0  0
    1.8872    2.1419   -1.5931 H   0  0  0  0  0  0  0  0  0  0  0  0
  1  2  1  0
  1  3  1  0
  3  4  1  0
  4  5  1  0
  5  6  2  0
  6  7  1  0
  7  8  2  0
  8  9  1  0
  9 10  2  0
  9 11  1  0
 11 12  2  0
 12 13  1  0
 13 14  1  0
 14 15  2  0
 15 16  1  0
 16 17  2  0
 17 18  1  0
 18 19  2  0
  1 20  1  0
 20 21  1  0
 21 22  2  0
 22 23  1  0
 23 24  2  0
 24 25  1  0
 25 26  1  0
 26 27  2  0
 27 28  1  0
 28 29  2  0
 10  5  1  0
 19 11  1  0
 29 21  1  0
 18 14  1  0
 27 22  1  0
  1 30  1  1
  2 31  1  0
  2 32  1  0
  3 33  1  0
  3 34  1  0
  6 35  1  0
  8 36  1  0
 10 37  1  0
 13 38  1  0
 13 39  1  0
 17 40  1  0
 19 41  1  0
 20 42  1  0
 20 43  1  0
 23 44  1  0
 24 45  1  0
 25 46  1  0
 25 47  1  0
 26 48  1  0
 29 49  1  0
M  END
$$$$
