
     RDKit          3D

176182  0  0  0  0  0  0  0  0999 V2000
   -7.9897   -0.4805    2.5215 C   0  0  2  0  0  0  0  0  0  0  0  0
   -8.2625    0.5227    3.6455 C   0  0  0  0  0  0  0  0  0  0  0  0
   -6.9246    0.7313    4.3468 C   0  0  0  0  0  0  0  0  0  0  0  0
   -6.0932   -0.5031    4.0256 C   0  0  0  0  0  0  0  0  0  0  0  0
   -6.7244   -1.1171    2.8658 N   0  0  0  0  0  0  0  0  0  0  0  0
   -6.2379   -2.2988    2.1950 C   0  0  0  0  0  0  0  0  0  0  0  0
   -6.8394   -2.7094    1.1650 O   0  0  0  0  0  0  0  0  0  0  0  0
   -5.0184   -3.0614    2.6820 C   0  0  2  0  0  0  0  0  0  0  0  0
   -4.0752   -3.2285    1.5741 N   0  0  0  0  0  0  0  0  0  0  0  0
   -2.7016   -2.8469    1.7028 C   0  0  0  0  0  0  0  0  0  0  0  0
   -2.0167   -3.3098    2.6542 O   0  0  0  0  0  0  0  0  0  0  0  0
   -2.0975   -1.8103    0.7868 C   0  0  1  0  0  0  0  0  0  0  0  0
   -2.8031   -1.7882   -0.5012 N   0  0  0  0  0  0  0  0  0  0  0  0
   -2.0969   -1.6048   -1.7354 C   0  0  0  0  0  0  0  0  0  0  0  0
   -0.8807   -1.9213   -1.8255 O   0  0  0  0  0  0  0  0  0  0  0  0
   -2.7613   -0.9705   -2.8854 C   0  0  0  0  0  0  0  0  0  0  0  0
   -2.2400    0.2102   -3.4393 C   0  0  0  0  0  0  0  0  0  0  0  0
   -1.1440    0.7966   -2.8912 N   0  0  0  0  0  0  0  0  0  0  0  0
   -0.6702    1.9737   -3.3632 C   0  0  0  0  0  0  0  0  0  0  0  0
   -1.3719    2.6020   -4.4957 C   0  0  0  0  0  0  0  0  0  0  0  0
   -2.4329    1.9899   -5.0105 O   0  0  0  0  0  0  0  0  0  0  0  0
   -2.8944    0.8365   -4.5284 C   0  0  0  0  0  0  0  0  0  0  0  0
   -4.0497    0.2515   -5.0780 C   0  0  0  0  0  0  0  0  0  0  0  0
   -4.7721    0.9166   -6.2154 C   0  0  0  0  0  0  0  0  0  0  0  0
   -4.5763   -0.9135   -4.4967 C   0  0  0  0  0  0  0  0  0  0  0  0
   -3.9411   -1.5153   -3.4067 C   0  0  0  0  0  0  0  0  0  0  0  0
   -0.9218    3.8334   -4.9862 C   0  0  0  0  0  0  0  0  0  0  0  0
   -1.6495    4.5021   -6.1252 C   0  0  0  0  0  0  0  0  0  0  0  0
    0.1571    4.4794   -4.3429 C   0  0  0  0  0  0  0  0  0  0  0  0
    0.5352    5.6104   -4.7555 O   0  0  0  0  0  0  0  0  0  0  0  0
    0.8196    3.8873   -3.2405 C   0  0  0  0  0  0  0  0  0  0  0  0
    1.9168    4.5782   -2.6185 N   0  0  0  0  0  0  0  0  0  0  0  0
    0.4051    2.6265   -2.7549 C   0  0  0  0  0  0  0  0  0  0  0  0
    1.0545    2.0006   -1.5900 C   0  0  0  0  0  0  0  0  0  0  0  0
    0.7229    2.3604   -0.4284 O   0  0  0  0  0  0  0  0  0  0  0  0
    2.0328    0.9695   -1.7818 N   0  0  0  0  0  0  0  0  0  0  0  0
    2.5454    0.1667   -0.6616 C   0  0  1  0  0  0  0  0  0  0  0  0
    3.3286   -1.0752   -1.1722 C   0  0  1  0  0  0  0  0  0  0  0  0
    2.3629   -2.1510   -1.6697 C   0  0  0  0  0  0  0  0  0  0  0  0
    4.2359   -0.7704   -2.2329 O   0  0  0  0  0  0  0  0  0  0  0  0
    5.5532   -0.3536   -2.0224 C   0  0  0  0  0  0  0  0  0  0  0  0
    5.8060    0.5398   -1.1755 O   0  0  0  0  0  0  0  0  0  0  0  0
    6.6616   -0.8855   -2.8882 C   0  0  2  0  0  0  0  0  0  0  0  0
    6.3581   -2.2974   -3.4807 C   0  0  0  0  0  0  0  0  0  0  0  0
    6.1311   -3.4053   -2.4352 C   0  0  0  0  0  0  0  0  0  0  0  0
    7.4399   -2.7263   -4.4811 C   0  0  0  0  0  0  0  0  0  0  0  0
    7.9693   -0.8104   -2.1976 N   0  0  0  0  0  0  0  0  0  0  0  0
    9.0233    0.0137   -2.7944 C   0  0  0  0  0  0  0  0  0  0  0  0
    8.3209   -1.6532   -1.0830 C   0  0  0  0  0  0  0  0  0  0  0  0
    9.2743   -2.4687   -1.2101 O   0  0  0  0  0  0  0  0  0  0  0  0
    7.6668   -1.5086    0.2704 C   0  0  0  0  0  0  0  0  0  0  0  0
    8.0137   -0.2294    0.9096 N   0  0  0  0  0  0  0  0  0  0  0  0
    9.3864    0.2868    0.8819 C   0  0  0  0  0  0  0  0  0  0  0  0
    7.0298    0.5230    1.6434 C   0  0  0  0  0  0  0  0  0  0  0  0
    6.7322    1.6821    1.2486 O   0  0  0  0  0  0  0  0  0  0  0  0
    6.4656    0.0434    2.9656 C   0  0  2  0  0  0  0  0  0  0  0  0
    7.5638   -0.1217    4.0172 C   0  0  0  0  0  0  0  0  0  0  0  0
    7.8819   -1.6096    4.0414 C   0  0  0  0  0  0  0  0  0  0  0  0
    6.6154   -2.2959    3.5504 C   0  0  0  0  0  0  0  0  0  0  0  0
    5.8425   -1.2723    2.8587 N   0  0  0  0  0  0  0  0  0  0  0  0
    4.5615   -1.5973    2.2737 C   0  0  0  0  0  0  0  0  0  0  0  0
    4.3920   -2.7707    1.8412 O   0  0  0  0  0  0  0  0  0  0  0  0
    3.3497   -0.6702    2.2559 C   0  0  2  0  0  0  0  0  0  0  0  0
    3.6370    0.6418    1.6538 N   0  0  0  0  0  0  0  0  0  0  0  0
    3.3738    1.0179    0.2853 C   0  0  0  0  0  0  0  0  0  0  0  0
    3.8195    2.1246   -0.1248 O   0  0  0  0  0  0  0  0  0  0  0  0
    2.6306   -0.5377    3.6325 C   0  0  0  0  0  0  0  0  0  0  0  0
    3.4913    0.0541    4.7583 C   0  0  0  0  0  0  0  0  0  0  0  0
    2.0436   -1.8859    4.0830 C   0  0  0  0  0  0  0  0  0  0  0  0
   -2.1539   -0.4089    1.4549 C   0  0  1  0  0  0  0  0  0  0  0  0
   -0.9297   -0.1745    2.3485 C   0  0  0  0  0  0  0  0  0  0  0  0
   -2.2275    0.6147    0.4573 O   0  0  0  0  0  0  0  0  0  0  0  0
   -2.7089    1.9044    0.7158 C   0  0  0  0  0  0  0  0  0  0  0  0
   -2.8838    2.2876    1.9044 O   0  0  0  0  0  0  0  0  0  0  0  0
   -3.1089    2.7823   -0.4534 C   0  0  2  0  0  0  0  0  0  0  0  0
   -3.0601    4.3198   -0.1771 C   0  0  0  0  0  0  0  0  0  0  0  0
   -1.6836    4.7782    0.3274 C   0  0  0  0  0  0  0  0  0  0  0  0
   -4.1794    4.8262    0.7447 C   0  0  0  0  0  0  0  0  0  0  0  0
   -4.4054    2.3759   -1.0508 N   0  0  0  0  0  0  0  0  0  0  0  0
   -4.7752    2.8899   -2.3741 C   0  0  0  0  0  0  0  0  0  0  0  0
   -5.2660    1.3668   -0.4790 C   0  0  0  0  0  0  0  0  0  0  0  0
   -5.6388    0.3943   -1.1896 O   0  0  0  0  0  0  0  0  0  0  0  0
   -5.7657    1.4586    0.9351 C   0  0  0  0  0  0  0  0  0  0  0  0
   -7.2307    1.4270    0.9677 N   0  0  0  0  0  0  0  0  0  0  0  0
   -7.9757    2.5587    0.4156 C   0  0  0  0  0  0  0  0  0  0  0  0
   -7.9226    0.1832    1.1638 C   0  0  0  0  0  0  0  0  0  0  0  0
   -8.5265   -0.3460    0.1922 O   0  0  0  0  0  0  0  0  0  0  0  0
   -5.3641   -4.4360    3.3177 C   0  0  0  0  0  0  0  0  0  0  0  0
   -6.1868   -4.2671    4.6030 C   0  0  0  0  0  0  0  0  0  0  0  0
   -6.0727   -5.4051    2.3566 C   0  0  0  0  0  0  0  0  0  0  0  0
   -8.7988   -1.2455    2.5188 H   0  0  0  0  0  0  0  0  0  0  0  0
   -8.9818    0.0771    4.3679 H   0  0  0  0  0  0  0  0  0  0  0  0
   -8.6858    1.4853    3.2835 H   0  0  0  0  0  0  0  0  0  0  0  0
   -7.0566    0.8583    5.4432 H   0  0  0  0  0  0  0  0  0  0  0  0
   -6.4271    1.6357    3.9325 H   0  0  0  0  0  0  0  0  0  0  0  0
   -6.1138   -1.2101    4.8819 H   0  0  0  0  0  0  0  0  0  0  0  0
   -5.0460   -0.2109    3.7960 H   0  0  0  0  0  0  0  0  0  0  0  0
   -4.5114   -2.4675    3.4707 H   0  0  0  0  0  0  0  0  0  0  0  0
   -4.4225   -3.5479    0.6418 H   0  0  0  0  0  0  0  0  0  0  0  0
   -1.0360   -2.0994    0.6175 H   0  0  0  0  0  0  0  0  0  0  0  0
   -3.8279   -1.5819   -0.4955 H   0  0  0  0  0  0  0  0  0  0  0  0
   -5.3263    1.8000   -5.8347 H   0  0  0  0  0  0  0  0  0  0  0  0
   -5.4922    0.2213   -6.6971 H   0  0  0  0  0  0  0  0  0  0  0  0
   -4.0472    1.2474   -6.9891 H   0  0  0  0  0  0  0  0  0  0  0  0
   -5.4859   -1.3558   -4.8837 H   0  0  0  0  0  0  0  0  0  0  0  0
   -4.3653   -2.4138   -2.9752 H   0  0  0  0  0  0  0  0  0  0  0  0
   -2.4436    5.1622   -5.7180 H   0  0  0  0  0  0  0  0  0  0  0  0
   -2.1142    3.7520   -6.7997 H   0  0  0  0  0  0  0  0  0  0  0  0
   -0.9523    5.1086   -6.7409 H   0  0  0  0  0  0  0  0  0  0  0  0
    2.4433    4.1685   -1.8161 H   0  0  0  0  0  0  0  0  0  0  0  0
    2.2296    5.5151   -2.9564 H   0  0  0  0  0  0  0  0  0  0  0  0
    2.3055    0.7366   -2.7636 H   0  0  0  0  0  0  0  0  0  0  0  0
    1.6595   -0.1870   -0.0926 H   0  0  0  0  0  0  0  0  0  0  0  0
    3.9016   -1.5306   -0.3436 H   0  0  0  0  0  0  0  0  0  0  0  0
    1.7574   -1.7672   -2.5178 H   0  0  0  0  0  0  0  0  0  0  0  0
    1.6875   -2.4746   -0.8490 H   0  0  0  0  0  0  0  0  0  0  0  0
    2.9336   -3.0377   -2.0182 H   0  0  0  0  0  0  0  0  0  0  0  0
    6.6829   -0.1934   -3.7606 H   0  0  0  0  0  0  0  0  0  0  0  0
    5.4125   -2.2088   -4.0621 H   0  0  0  0  0  0  0  0  0  0  0  0
    5.6163   -4.2652   -2.9142 H   0  0  0  0  0  0  0  0  0  0  0  0
    5.4936   -3.0547   -1.6002 H   0  0  0  0  0  0  0  0  0  0  0  0
    7.0877   -3.7827   -2.0223 H   0  0  0  0  0  0  0  0  0  0  0  0
    8.4144   -2.8766   -3.9703 H   0  0  0  0  0  0  0  0  0  0  0  0
    7.5631   -1.9540   -5.2700 H   0  0  0  0  0  0  0  0  0  0  0  0
    7.1482   -3.6785   -4.9736 H   0  0  0  0  0  0  0  0  0  0  0  0
    9.9094    0.0792   -2.1272 H   0  0  0  0  0  0  0  0  0  0  0  0
    9.3393   -0.4243   -3.7641 H   0  0  0  0  0  0  0  0  0  0  0  0
    8.6450    1.0441   -2.9631 H   0  0  0  0  0  0  0  0  0  0  0  0
    8.0056   -2.3380    0.9247 H   0  0  0  0  0  0  0  0  0  0  0  0
    6.5687   -1.6068    0.1618 H   0  0  0  0  0  0  0  0  0  0  0  0
    9.4257    1.2063    0.2611 H   0  0  0  0  0  0  0  0  0  0  0  0
    9.7290    0.5298    1.9073 H   0  0  0  0  0  0  0  0  0  0  0  0
   10.0945   -0.4600    0.4674 H   0  0  0  0  0  0  0  0  0  0  0  0
    5.7532    0.7868    3.3582 H   0  0  0  0  0  0  0  0  0  0  0  0
    8.4656    0.4945    3.8207 H   0  0  0  0  0  0  0  0  0  0  0  0
    7.1624    0.1706    5.0134 H   0  0  0  0  0  0  0  0  0  0  0  0
    8.1601   -1.9493    5.0626 H   0  0  0  0  0  0  0  0  0  0  0  0
    8.7209   -1.8212    3.3431 H   0  0  0  0  0  0  0  0  0  0  0  0
    6.0294   -2.6812    4.4132 H   0  0  0  0  0  0  0  0  0  0  0  0
    6.8621   -3.1355    2.8662 H   0  0  0  0  0  0  0  0  0  0  0  0
    2.5986   -1.1726    1.6153 H   0  0  0  0  0  0  0  0  0  0  0  0
    4.0069    1.4023    2.2617 H   0  0  0  0  0  0  0  0  0  0  0  0
    1.7723    0.1550    3.4892 H   0  0  0  0  0  0  0  0  0  0  0  0
    4.3792   -0.5781    4.9619 H   0  0  0  0  0  0  0  0  0  0  0  0
    2.8963    0.1139    5.6946 H   0  0  0  0  0  0  0  0  0  0  0  0
    3.8045    1.0888    4.5164 H   0  0  0  0  0  0  0  0  0  0  0  0
    2.8534   -2.6140    4.3028 H   0  0  0  0  0  0  0  0  0  0  0  0
    1.3853   -2.3083    3.2941 H   0  0  0  0  0  0  0  0  0  0  0  0
    1.4296   -1.7504    4.9990 H   0  0  0  0  0  0  0  0  0  0  0  0
   -3.0708   -0.3497    2.0850 H   0  0  0  0  0  0  0  0  0  0  0  0
   -0.8636   -0.9583    3.1311 H   0  0  0  0  0  0  0  0  0  0  0  0
   -0.0026   -0.1889    1.7385 H   0  0  0  0  0  0  0  0  0  0  0  0
   -0.9995    0.8085    2.8571 H   0  0  0  0  0  0  0  0  0  0  0  0
   -2.3308    2.5930   -1.2207 H   0  0  0  0  0  0  0  0  0  0  0  0
   -3.2065    4.8369   -1.1501 H   0  0  0  0  0  0  0  0  0  0  0  0
   -1.6572    5.8858    0.4085 H   0  0  0  0  0  0  0  0  0  0  0  0
   -1.4521    4.3501    1.3243 H   0  0  0  0  0  0  0  0  0  0  0  0
   -0.8946    4.4737   -0.3915 H   0  0  0  0  0  0  0  0  0  0  0  0
   -4.1507    5.9356    0.7946 H   0  0  0  0  0  0  0  0  0  0  0  0
   -5.1724    4.5393    0.3416 H   0  0  0  0  0  0  0  0  0  0  0  0
   -4.0722    4.4379    1.7767 H   0  0  0  0  0  0  0  0  0  0  0  0
   -5.0349    2.0551   -3.0561 H   0  0  0  0  0  0  0  0  0  0  0  0
   -5.6551    3.5595   -2.2773 H   0  0  0  0  0  0  0  0  0  0  0  0
   -3.9413    3.4545   -2.8413 H   0  0  0  0  0  0  0  0  0  0  0  0
   -5.3401    0.6131    1.5081 H   0  0  0  0  0  0  0  0  0  0  0  0
   -5.4198    2.3921    1.4170 H   0  0  0  0  0  0  0  0  0  0  0  0
   -7.9982    2.4895   -0.6924 H   0  0  0  0  0  0  0  0  0  0  0  0
   -7.4972    3.5156    0.7125 H   0  0  0  0  0  0  0  0  0  0  0  0
   -9.0175    2.5604    0.8020 H   0  0  0  0  0  0  0  0  0  0  0  0
   -4.4021   -4.9135    3.6102 H   0  0  0  0  0  0  0  0  0  0  0  0
   -7.1686   -3.7947    4.3854 H   0  0  0  0  0  0  0  0  0  0  0  0
   -6.3655   -5.2560    5.0764 H   0  0  0  0  0  0  0  0  0  0  0  0
   -5.6354   -3.6355    5.3312 H   0  0  0  0  0  0  0  0  0  0  0  0
   -7.0976   -5.0546    2.1153 H   0  0  0  0  0  0  0  0  0  0  0  0
   -6.1565   -6.4070    2.8294 H   0  0  0  0  0  0  0  0  0  0  0  0
   -5.4946   -5.5258    1.4175 H   0  0  0  0  0  0  0  0  0  0  0  0
  1  2  1  0
  2  3  1  0
  3  4  1  0
  4  5  1  0
  5  6  1  0
  6  7  2  0
  6  8  1  0
  8  9  1  0
  9 10  1  0
 10 11  2  0
 10 12  1  0
 12 13  1  0
 13 14  1  0
 14 15  2  0
 14 16  1  0
 16 17  2  0
 17 18  1  0
 18 19  2  0
 19 20  1  0
 20 21  1  0
 21 22  1  0
 22 23  2  0
 23 24  1  0
 23 25  1  0
 25 26  2  0
 20 27  2  0
 27 28  1  0
 27 29  1  0
 29 30  2  0
 29 31  1  0
 31 32  1  0
 31 33  2  0
 33 34  1  0
 34 35  2  0
 34 36  1  0
 36 37  1  0
 37 38  1  0
 38 39  1  0
 38 40  1  0
 40 41  1  0
 41 42  2  0
 41 43  1  0
 43 44  1  0
 44 45  1  0
 44 46  1  0
 43 47  1  0
 47 48  1  0
 47 49  1  0
 49 50  2  0
 49 51  1  0
 51 52  1  0
 52 53  1  0
 52 54  1  0
 54 55  2  0
 54 56  1  0
 56 57  1  0
 57 58  1  0
 58 59  1  0
 59 60  1  0
 60 61  1  0
 61 62  2  0
 61 63  1  0
 63 64  1  0
 64 65  1  0
 65 66  2  0
 63 67  1  0
 67 68  1  0
 67 69  1  0
 12 70  1  0
 70 71  1  0
 70 72  1  0
 72 73  1  0
 73 74  2  0
 73 75  1  0
 75 76  1  0
 76 77  1  0
 76 78  1  0
 75 79  1  0
 79 80  1  0
 79 81  1  0
 81 82  2  0
 81 83  1  0
 83 84  1  0
 84 85  1  0
 84 86  1  0
 86 87  2  0
  8 88  1  0
 88 89  1  0
 88 90  1  0
  5  1  1  0
 26 16  1  0
 65 37  1  0
 86  1  1  0
 22 17  1  0
 60 56  1  0
 33 19  1  0
  1 91  1  6
  2 92  1  0
  2 93  1  0
  3 94  1  0
  3 95  1  0
  4 96  1  0
  4 97  1  0
  8 98  1  1
  9 99  1  0
 12100  1  6
 13101  1  0
 24102  1  0
 24103  1  0
 24104  1  0
 25105  1  0
 26106  1  0
 28107  1  0
 28108  1  0
 28109  1  0
 32110  1  0
 32111  1  0
 36112  1  0
 37113  1  1
 38114  1  1
 39115  1  0
 39116  1  0
 39117  1  0
 43118  1  6
 44119  1  0
 45120  1  0
 45121  1  0
 45122  1  0
 46123  1  0
 46124  1  0
 46125  1  0
 48126  1  0
 48127  1  0
 48128  1  0
 51129  1  0
 51130  1  0
 53131  1  0
 53132  1  0
 53133  1  0
 56134  1  1
 57135  1  0
 57136  1  0
 58137  1  0
 58138  1  0
 59139  1  0
 59140  1  0
 63141  1  6
 64142  1  0
 67143  1  0
 68144  1  0
 68145  1  0
 68146  1  0
 69147  1  0
 69148  1  0
 69149  1  0
 70150  1  1
 71151  1  0
 71152  1  0
 71153  1  0
 75154  1  6
 76155  1  0
 77156  1  0
 77157  1  0
 77158  1  0
 78159  1  0
 78160  1  0
 78161  1  0
 80162  1  0
 80163  1  0
 80164  1  0
 83165  1  0
 83166  1  0
 85167  1  0
 85168  1  0
 85169  1  0
 88170  1  0
 89171  1  0
 89172  1  0
 89173  1  0
 90174  1  0
 90175  1  0
 90176  1  0
M  END
$$$$
