
     RDKit          3D

 26 25  0  0  0  0  0  0  0  0999 V2000
   -2.9555   -0.7392   -0.6626 C   0  0  1  0  0  0  0  0  0  0  0  0
   -3.7951   -0.2394   -1.7534 N   0  0  0  0  0  0  0  0  0  0  0  0
   -1.5351   -0.1522   -0.7459 C   0  0  0  0  0  0  0  0  0  0  0  0
   -0.4308   -0.9462    0.4762 S   0  0  0  0  0  0  0  0  0  0  0  0
    1.0343    0.0415    0.0218 C   0  0  0  0  0  0  0  0  0  0  0  0
    2.2254   -0.3765    0.8863 C   0  0  0  0  0  0  0  0  0  0  0  0
    3.5859    0.4309    0.5180 B   0  0  0  0  0  4  0  0  0  0  0  0
    4.6974   -0.0668    1.3568 O   0  0  0  0  0  0  0  0  0  0  0  0
    3.3997    1.8680    0.8105 O   0  0  0  0  0  0  0  0  0  0  0  0
    3.9297    0.2571   -0.9143 O   0  0  0  0  0  0  0  0  0  0  0  0
   -3.6012   -0.4191    0.6566 C   0  0  0  0  0  0  0  0  0  0  0  0
   -3.8888   -1.4443    1.5524 O   0  0  0  0  0  0  0  0  0  0  0  0
   -3.8728    0.7740    0.9605 O   0  0  0  0  0  0  0  0  0  0  0  0
   -2.8847   -1.8457   -0.7593 H   0  0  0  0  0  0  0  0  0  0  0  0
   -3.7531    0.8062   -1.7762 H   0  0  0  0  0  0  0  0  0  0  0  0
   -3.4052   -0.5846   -2.6607 H   0  0  0  0  0  0  0  0  0  0  0  0
   -1.1238   -0.3332   -1.7623 H   0  0  0  0  0  0  0  0  0  0  0  0
   -1.5633    0.9449   -0.5684 H   0  0  0  0  0  0  0  0  0  0  0  0
    0.8069    1.1168    0.1840 H   0  0  0  0  0  0  0  0  0  0  0  0
    1.2664   -0.1278   -1.0518 H   0  0  0  0  0  0  0  0  0  0  0  0
    1.9847   -0.1947    1.9560 H   0  0  0  0  0  0  0  0  0  0  0  0
    2.4075   -1.4650    0.7542 H   0  0  0  0  0  0  0  0  0  0  0  0
    4.8284   -1.0222    1.1260 H   0  0  0  0  0  0  0  0  0  0  0  0
    2.9520    2.2690    0.0219 H   0  0  0  0  0  0  0  0  0  0  0  0
    4.0093   -0.7181   -1.0747 H   0  0  0  0  0  0  0  0  0  0  0  0
   -4.3181   -1.2461    2.4483 H   0  0  0  0  0  0  0  0  0  0  0  0
  1  2  1  0
  1  3  1  0
  3  4  1  0
  4  5  1  0
  5  6  1  0
  6  7  1  0
  7  8  1  0
  7  9  1  0
  7 10  1  0
  1 11  1  0
 11 12  1  0
 11 13  2  0
  1 14  1  6
  2 15  1  0
  2 16  1  0
  3 17  1  0
  3 18  1  0
  5 19  1  0
  5 20  1  0
  6 21  1  0
  6 22  1  0
  8 23  1  0
  9 24  1  0
 10 25  1  0
 12 26  1  0
M  CHG  1   7  -1
M  END
$$$$
