
     RDKit          3D

 55 58  0  0  0  0  0  0  0  0999 V2000
   -3.4716   -1.1276    2.7436 C   0  0  0  0  0  0  0  0  0  0  0  0
   -2.6929   -0.3105    1.6948 C   0  0  1  0  0  0  0  0  0  0  0  0
   -1.3041   -0.9378    1.5039 C   0  0  0  0  0  0  0  0  0  0  0  0
   -0.4499   -0.1024    0.5377 C   0  0  1  0  0  0  0  0  0  0  0  0
    0.9622   -0.7189    0.3693 C   0  0  2  0  0  0  0  0  0  0  0  0
    1.8051   -0.9575    1.6171 C   0  0  0  0  0  0  0  0  0  0  0  0
    3.2604   -0.9723    1.1146 C   0  0  0  0  0  0  0  0  0  0  0  0
    3.2201   -0.6710   -0.4157 C   0  0  2  0  0  0  0  0  0  0  0  0
    3.1358   -1.8928   -1.1169 O   0  0  0  0  0  0  0  0  0  0  0  0
    4.4282    0.1019   -0.9558 C   0  0  0  0  0  0  0  0  0  0  0  0
    4.4063    0.4892   -2.1149 O   0  0  0  0  0  0  0  0  0  0  0  0
    5.6588    0.3859   -0.1376 C   0  0  0  0  0  0  0  0  0  0  0  0
    5.4646    1.5555    0.6063 O   0  0  0  0  0  0  0  0  0  0  0  0
    1.8727    0.1010   -0.5678 C   0  0  2  0  0  0  0  0  0  0  0  0
    2.0370    1.5894   -0.1046 C   0  0  0  0  0  0  0  0  0  0  0  0
    1.2379    0.0842   -1.9792 C   0  0  0  0  0  0  0  0  0  0  0  0
   -0.1850    0.5953   -1.8893 C   0  0  0  0  0  0  0  0  0  0  0  0
   -0.5344    1.4957   -2.6359 O   0  0  0  0  0  0  0  0  0  0  0  0
   -1.1421   -0.0339   -0.8644 C   0  0  2  0  0  0  0  0  0  0  0  0
   -2.6002    0.5616   -0.7938 C   0  0  1  0  0  0  0  0  0  0  0  0
   -2.6045    2.0758   -0.4737 C   0  0  0  0  0  0  0  0  0  0  0  0
   -3.2729    0.3803   -2.1587 C   0  0  0  0  0  0  0  0  0  0  0  0
   -4.5495    0.0293   -2.2991 C   0  0  0  0  0  0  0  0  0  0  0  0
   -5.3383   -0.3508   -1.1346 C   0  0  0  0  0  0  0  0  0  0  0  0
   -6.5658   -0.6037   -1.2563 O   0  0  0  0  0  0  0  0  0  0  0  0
   -4.6831   -0.4832    0.1662 C   0  0  0  0  0  0  0  0  0  0  0  0
   -3.3820   -0.1577    0.3339 C   0  0  0  0  0  0  0  0  0  0  0  0
   -4.4050   -0.5997    3.0326 H   0  0  0  0  0  0  0  0  0  0  0  0
   -2.8686   -1.2424    3.6698 H   0  0  0  0  0  0  0  0  0  0  0  0
   -3.7139   -2.1401    2.3546 H   0  0  0  0  0  0  0  0  0  0  0  0
   -2.5594    0.7057    2.1254 H   0  0  0  0  0  0  0  0  0  0  0  0
   -1.4079   -1.9779    1.1204 H   0  0  0  0  0  0  0  0  0  0  0  0
   -0.7941   -0.9859    2.4908 H   0  0  0  0  0  0  0  0  0  0  0  0
   -0.3507    0.9101    0.9770 H   0  0  0  0  0  0  0  0  0  0  0  0
    0.8066   -1.7280   -0.0850 H   0  0  0  0  0  0  0  0  0  0  0  0
    1.6546   -0.1377    2.3537 H   0  0  0  0  0  0  0  0  0  0  0  0
    1.5407   -1.9261    2.0951 H   0  0  0  0  0  0  0  0  0  0  0  0
    3.8191   -0.1943    1.6755 H   0  0  0  0  0  0  0  0  0  0  0  0
    3.7383   -1.9539    1.3251 H   0  0  0  0  0  0  0  0  0  0  0  0
    3.9838   -2.3892   -0.9680 H   0  0  0  0  0  0  0  0  0  0  0  0
    5.8819   -0.4714    0.5346 H   0  0  0  0  0  0  0  0  0  0  0  0
    6.5330    0.5162   -0.8144 H   0  0  0  0  0  0  0  0  0  0  0  0
    6.2904    1.6809    1.1422 H   0  0  0  0  0  0  0  0  0  0  0  0
    1.0856    2.1557   -0.1525 H   0  0  0  0  0  0  0  0  0  0  0  0
    2.7412    2.1312   -0.7692 H   0  0  0  0  0  0  0  0  0  0  0  0
    2.4230    1.6642    0.9322 H   0  0  0  0  0  0  0  0  0  0  0  0
    1.8310    0.7125   -2.6788 H   0  0  0  0  0  0  0  0  0  0  0  0
    1.2084   -0.9458   -2.3940 H   0  0  0  0  0  0  0  0  0  0  0  0
   -1.2659   -1.0883   -1.2051 H   0  0  0  0  0  0  0  0  0  0  0  0
   -2.0445    2.3070    0.4536 H   0  0  0  0  0  0  0  0  0  0  0  0
   -3.6486    2.4306   -0.3318 H   0  0  0  0  0  0  0  0  0  0  0  0
   -2.1686    2.6786   -1.2946 H   0  0  0  0  0  0  0  0  0  0  0  0
   -2.7443    0.6502   -3.0614 H   0  0  0  0  0  0  0  0  0  0  0  0
   -4.9972    0.0010   -3.2851 H   0  0  0  0  0  0  0  0  0  0  0  0
   -5.2817   -0.8884    0.9680 H   0  0  0  0  0  0  0  0  0  0  0  0
  1  2  1  0
  2  3  1  0
  3  4  1  0
  4  5  1  0
  5  6  1  0
  6  7  1  0
  7  8  1  0
  8  9  1  6
  8 10  1  0
 10 11  2  0
 10 12  1  0
 12 13  1  0
  8 14  1  0
 14 15  1  1
 14 16  1  0
 16 17  1  0
 17 18  2  0
 17 19  1  0
 19 20  1  0
 20 21  1  1
 20 22  1  0
 22 23  2  0
 23 24  1  0
 24 25  2  0
 24 26  1  0
 26 27  2  0
 27  2  1  0
 19  4  1  0
 27 20  1  0
 14  5  1  0
  1 28  1  0
  1 29  1  0
  1 30  1  0
  2 31  1  1
  3 32  1  0
  3 33  1  0
  4 34  1  1
  5 35  1  6
  6 36  1  0
  6 37  1  0
  7 38  1  0
  7 39  1  0
  9 40  1  0
 12 41  1  0
 12 42  1  0
 13 43  1  0
 15 44  1  0
 15 45  1  0
 15 46  1  0
 16 47  1  0
 16 48  1  0
 19 49  1  6
 21 50  1  0
 21 51  1  0
 21 52  1  0
 22 53  1  0
 23 54  1  0
 26 55  1  0
M  END
$$$$
