
     RDKit          3D

 48 52  0  0  0  0  0  0  0  0999 V2000
    3.3068   -0.0232   -0.9716 C   0  0  2  0  0  0  0  0  0  0  0  0
    2.1198   -0.9823   -0.8935 C   0  0  0  0  0  0  0  0  0  0  0  0
    1.2563   -0.2989    0.1816 C   0  0  1  0  0  0  0  0  0  0  0  0
    2.3034    0.0047    1.2848 C   0  0  0  0  0  0  0  0  0  0  0  0
    3.5227    0.2988    0.4772 C   0  0  0  0  0  0  0  0  0  0  0  0
    4.6603    0.7846    0.9842 C   0  0  0  0  0  0  0  0  0  0  0  0
    0.6806    1.0462   -0.3921 C   0  0  1  0  0  0  0  0  0  0  0  0
    1.3748    1.5529   -1.6943 C   0  0  0  0  0  0  0  0  0  0  0  0
    2.9001    1.2672   -1.7321 C   0  0  0  0  0  0  0  0  0  0  0  0
   -0.8250    0.8035   -0.5519 C   0  0  1  0  0  0  0  0  0  0  0  0
   -1.7243    2.0532   -0.3828 C   0  0  0  0  0  0  0  0  0  0  0  0
   -3.2297    1.6861   -0.5071 C   0  0  0  0  0  0  0  0  0  0  0  0
   -3.6192    0.3198    0.1467 C   0  0  2  0  0  0  0  0  0  0  0  0
   -3.8652    0.5259    1.5161 O   0  0  0  0  0  0  0  0  0  0  0  0
   -2.5110   -0.7686   -0.0539 C   0  0  1  0  0  0  0  0  0  0  0  0
   -2.9195   -2.1418    0.5067 C   0  0  0  0  0  0  0  0  0  0  0  0
   -2.1480   -0.8055   -1.5008 C   0  0  0  0  0  0  0  0  0  0  0  0
   -2.7038   -1.5083   -2.3856 O   0  0  0  0  0  0  0  0  0  0  0  0
   -1.1605    0.1249   -1.7661 O   0  0  0  0  0  0  0  0  0  0  0  0
   -1.1945   -0.2039    0.5323 C   0  0  1  0  0  0  0  0  0  0  0  0
    0.0220   -1.1592    0.5999 C   0  0  2  0  0  0  0  0  0  0  0  0
    0.1351   -1.8472    1.9380 C   0  0  0  0  0  0  0  0  0  0  0  0
    0.4164   -3.2089    1.9865 O   0  0  0  0  0  0  0  0  0  0  0  0
    0.0121   -1.1963    3.0112 O   0  0  0  0  0  0  0  0  0  0  0  0
    4.1966   -0.5128   -1.4244 H   0  0  0  0  0  0  0  0  0  0  0  0
    1.5963   -1.1083   -1.8670 H   0  0  0  0  0  0  0  0  0  0  0  0
    2.4564   -1.9865   -0.5470 H   0  0  0  0  0  0  0  0  0  0  0  0
    2.5237   -0.8835    1.9142 H   0  0  0  0  0  0  0  0  0  0  0  0
    2.0178    0.8583    1.9365 H   0  0  0  0  0  0  0  0  0  0  0  0
    4.7449    0.9934    2.0459 H   0  0  0  0  0  0  0  0  0  0  0  0
    5.5121    0.9772    0.3396 H   0  0  0  0  0  0  0  0  0  0  0  0
    0.8019    1.8519    0.3664 H   0  0  0  0  0  0  0  0  0  0  0  0
    0.9233    1.0679   -2.5855 H   0  0  0  0  0  0  0  0  0  0  0  0
    1.1989    2.6445   -1.8088 H   0  0  0  0  0  0  0  0  0  0  0  0
    3.4507    2.1445   -1.3256 H   0  0  0  0  0  0  0  0  0  0  0  0
    3.2118    1.1666   -2.7945 H   0  0  0  0  0  0  0  0  0  0  0  0
   -1.4651    2.8059   -1.1580 H   0  0  0  0  0  0  0  0  0  0  0  0
   -1.5448    2.5182    0.6116 H   0  0  0  0  0  0  0  0  0  0  0  0
   -3.8461    2.5027   -0.0725 H   0  0  0  0  0  0  0  0  0  0  0  0
   -3.4855    1.6425   -1.5888 H   0  0  0  0  0  0  0  0  0  0  0  0
   -4.5583   -0.0244   -0.3499 H   0  0  0  0  0  0  0  0  0  0  0  0
   -4.5186   -0.1641    1.8031 H   0  0  0  0  0  0  0  0  0  0  0  0
   -2.1950   -2.9300    0.2138 H   0  0  0  0  0  0  0  0  0  0  0  0
   -2.9693   -2.1049    1.6154 H   0  0  0  0  0  0  0  0  0  0  0  0
   -3.9171   -2.4332    0.1149 H   0  0  0  0  0  0  0  0  0  0  0  0
   -1.3432    0.2969    1.5169 H   0  0  0  0  0  0  0  0  0  0  0  0
   -0.1113   -1.9575   -0.1634 H   0  0  0  0  0  0  0  0  0  0  0  0
    0.5101   -3.6886    2.8737 H   0  0  0  0  0  0  0  0  0  0  0  0
  1  2  1  0
  2  3  1  0
  3  4  1  1
  4  5  1  0
  5  6  2  3
  3  7  1  0
  7  8  1  0
  8  9  1  0
  7 10  1  0
 10 11  1  0
 11 12  1  0
 12 13  1  0
 13 14  1  0
 13 15  1  0
 15 16  1  1
 15 17  1  0
 17 18  2  0
 17 19  1  0
 15 20  1  0
 20 21  1  0
 21 22  1  0
 22 23  1  0
 22 24  2  0
  5  1  1  0
 10 19  1  6
  9  1  1  0
 20 10  1  0
 21  3  1  0
  1 25  1  6
  2 26  1  0
  2 27  1  0
  4 28  1  0
  4 29  1  0
  6 30  1  0
  6 31  1  0
  7 32  1  1
  8 33  1  0
  8 34  1  0
  9 35  1  0
  9 36  1  0
 11 37  1  0
 11 38  1  0
 12 39  1  0
 12 40  1  0
 13 41  1  6
 14 42  1  0
 16 43  1  0
 16 44  1  0
 16 45  1  0
 20 46  1  1
 21 47  1  6
 23 48  1  0
M  END
$$$$
