
     RDKit          3D

 36 39  0  0  0  0  0  0  0  0999 V2000
   -3.8838    0.1697   -0.5599 C   0  0  2  0  0  0  0  0  0  0  0  0
   -3.2445    0.8582   -1.6103 O   0  0  0  0  0  0  0  0  0  0  0  0
   -4.4173    1.1521    0.4964 C   0  0  0  0  0  0  0  0  0  0  0  0
   -3.3483    1.2100    1.5889 C   0  0  0  0  0  0  0  0  0  0  0  0
   -2.5052    0.0471    1.3661 N   0  0  0  0  0  0  0  0  0  0  0  0
   -1.0811    0.1165    1.3430 C   0  0  0  0  0  0  0  0  0  0  0  0
   -0.4038    0.6990    2.2315 O   0  0  0  0  0  0  0  0  0  0  0  0
   -0.5077   -0.5279    0.2155 N   0  0  0  0  0  0  0  0  0  0  0  0
   -1.6289   -1.0767   -0.4667 C   0  0  0  0  0  0  0  0  0  0  0  0
   -1.5334   -1.7811   -1.5068 O   0  0  0  0  0  0  0  0  0  0  0  0
   -2.9224   -0.7404    0.2176 C   0  0  2  0  0  0  0  0  0  0  0  0
    0.8636   -0.9307    0.0782 C   0  0  0  0  0  0  0  0  0  0  0  0
    1.1823   -2.2925    0.1357 C   0  0  0  0  0  0  0  0  0  0  0  0
    2.5054   -2.7182    0.0459 C   0  0  0  0  0  0  0  0  0  0  0  0
    3.5425   -1.7928   -0.1058 C   0  0  0  0  0  0  0  0  0  0  0  0
    4.8956   -2.2940   -0.1874 C   0  0  0  0  0  0  0  0  0  0  0  0
    5.9788   -2.6961   -0.2527 N   0  0  0  0  0  0  0  0  0  0  0  0
    3.2478   -0.4102   -0.1813 C   0  0  0  0  0  0  0  0  0  0  0  0
    4.2664    0.5526   -0.3480 C   0  0  0  0  0  0  0  0  0  0  0  0
    3.9533    1.9092   -0.4412 C   0  0  0  0  0  0  0  0  0  0  0  0
    2.6266    2.3291   -0.3769 C   0  0  0  0  0  0  0  0  0  0  0  0
    1.6021    1.3972   -0.2097 C   0  0  0  0  0  0  0  0  0  0  0  0
    1.8939    0.0228   -0.0952 C   0  0  0  0  0  0  0  0  0  0  0  0
   -4.7178   -0.4290   -0.9860 H   0  0  0  0  0  0  0  0  0  0  0  0
   -2.5394    1.4358   -1.2147 H   0  0  0  0  0  0  0  0  0  0  0  0
   -5.3621    0.7527    0.9266 H   0  0  0  0  0  0  0  0  0  0  0  0
   -4.6164    2.1581    0.0665 H   0  0  0  0  0  0  0  0  0  0  0  0
   -2.7551    2.1461    1.4897 H   0  0  0  0  0  0  0  0  0  0  0  0
   -3.8048    1.1620    2.6003 H   0  0  0  0  0  0  0  0  0  0  0  0
   -3.4310   -1.6663    0.5639 H   0  0  0  0  0  0  0  0  0  0  0  0
    0.3992   -3.0282    0.2700 H   0  0  0  0  0  0  0  0  0  0  0  0
    2.7215   -3.7788    0.1017 H   0  0  0  0  0  0  0  0  0  0  0  0
    5.3079    0.2649   -0.4119 H   0  0  0  0  0  0  0  0  0  0  0  0
    4.7432    2.6378   -0.5713 H   0  0  0  0  0  0  0  0  0  0  0  0
    2.3900    3.3820   -0.4606 H   0  0  0  0  0  0  0  0  0  0  0  0
    0.5830    1.7602   -0.1816 H   0  0  0  0  0  0  0  0  0  0  0  0
  1  2  1  0
  1  3  1  0
  3  4  1  0
  4  5  1  0
  5  6  1  0
  6  7  2  0
  6  8  1  0
  8  9  1  0
  9 10  2  0
  9 11  1  0
  8 12  1  0
 12 13  2  0
 13 14  1  0
 14 15  2  0
 15 16  1  0
 16 17  3  0
 15 18  1  0
 18 19  2  0
 19 20  1  0
 20 21  2  0
 21 22  1  0
 22 23  2  0
 11  1  1  0
 23 12  1  0
 11  5  1  0
 23 18  1  0
  1 24  1  6
  2 25  1  0
  3 26  1  0
  3 27  1  0
  4 28  1  0
  4 29  1  0
 11 30  1  1
 13 31  1  0
 14 32  1  0
 19 33  1  0
 20 34  1  0
 21 35  1  0
 22 36  1  0
M  END
$$$$
