
     RDKit          3D

 15 14  0  0  0  0  0  0  0  0999 V2000
    3.1315    0.5200    0.0230 O   0  0  0  0  0  0  0  0  0  0  0  0
    1.9375    0.0536   -0.4142 N   0  0  0  0  0  0  0  0  0  0  0  0
    1.0124   -0.5454    0.4969 C   0  0  0  0  0  0  0  0  0  0  0  0
    1.2971   -0.6227    1.7223 O   0  0  0  0  0  0  0  0  0  0  0  0
   -0.3130   -1.0420    0.0114 C   0  0  0  0  0  0  0  0  0  0  0  0
   -1.5422    0.2986    0.0535 P   0  0  0  0  0  5  0  0  0  0  0  0
   -3.0292   -0.2906   -0.4985 O   0  0  0  0  0  0  0  0  0  0  0  0
   -1.0444    1.5675   -0.9505 O   0  0  0  0  0  0  0  0  0  0  0  0
   -1.6987    0.8044    1.4703 O   0  0  0  0  0  0  0  0  0  0  0  0
    2.9659    1.4717    0.2458 H   0  0  0  0  0  0  0  0  0  0  0  0
    1.7034    0.1235   -1.4299 H   0  0  0  0  0  0  0  0  0  0  0  0
   -0.6633   -1.8770    0.6544 H   0  0  0  0  0  0  0  0  0  0  0  0
   -0.2199   -1.4184   -1.0289 H   0  0  0  0  0  0  0  0  0  0  0  0
   -3.2563   -1.0286    0.1219 H   0  0  0  0  0  0  0  0  0  0  0  0
   -0.2810    1.9852   -0.4775 H   0  0  0  0  0  0  0  0  0  0  0  0
  1  2  1  0
  2  3  1  0
  3  4  2  0
  3  5  1  0
  5  6  1  0
  6  7  1  0
  6  8  1  0
  6  9  2  0
  1 10  1  0
  2 11  1  0
  5 12  1  0
  5 13  1  0
  7 14  1  0
  8 15  1  0
M  END
$$$$
