
     RDKit          3D

 56 59  0  0  0  0  0  0  0  0999 V2000
    1.0589   -0.7987    0.1715 C   0  0  2  0  0  0  0  0  0  0  0  0
    1.9389   -1.4915    1.2037 C   0  0  0  0  0  0  0  0  0  0  0  0
    3.3574   -1.4262    0.6057 C   0  0  0  0  0  0  0  0  0  0  0  0
    3.2669   -0.5552   -0.6903 C   0  0  2  0  0  0  0  0  0  0  0  0
    3.0802   -1.4121   -1.7965 O   0  0  0  0  0  0  0  0  0  0  0  0
    4.4913    0.3212   -0.9735 C   0  0  0  0  0  0  0  0  0  0  0  0
    5.7279    0.3026   -0.1194 C   0  0  0  0  0  0  0  0  0  0  0  0
    4.4719    1.0586   -1.9480 O   0  0  0  0  0  0  0  0  0  0  0  0
    1.9641    0.2745   -0.4506 C   0  0  2  0  0  0  0  0  0  0  0  0
    2.2767    1.4626    0.5247 C   0  0  0  0  0  0  0  0  0  0  0  0
    1.2605    0.8034   -1.7305 C   0  0  0  0  0  0  0  0  0  0  0  0
   -0.1771    1.3319   -1.4520 C   0  0  2  0  0  0  0  0  0  0  0  0
   -0.1166    2.5648   -0.7866 O   0  0  0  0  0  0  0  0  0  0  0  0
   -1.0700    0.2971   -0.6710 C   0  0  1  0  0  0  0  0  0  0  0  0
   -1.2423   -0.7736   -1.5444 F   0  0  0  0  0  0  0  0  0  0  0  0
   -0.3281   -0.2627    0.6007 C   0  0  1  0  0  0  0  0  0  0  0  0
   -1.1538   -1.3821    1.2730 C   0  0  0  0  0  0  0  0  0  0  0  0
   -2.5566   -0.8923    1.6604 C   0  0  2  0  0  0  0  0  0  0  0  0
   -3.3097   -2.0034    2.4130 C   0  0  0  0  0  0  0  0  0  0  0  0
   -3.2519   -0.3429    0.4143 C   0  0  0  0  0  0  0  0  0  0  0  0
   -4.4029   -0.8715   -0.0529 C   0  0  0  0  0  0  0  0  0  0  0  0
   -5.0197   -0.3848   -1.2856 C   0  0  0  0  0  0  0  0  0  0  0  0
   -6.1006   -0.8861   -1.6933 O   0  0  0  0  0  0  0  0  0  0  0  0
   -4.3756    0.6783   -2.0453 C   0  0  0  0  0  0  0  0  0  0  0  0
   -3.2369    1.2189   -1.6183 C   0  0  0  0  0  0  0  0  0  0  0  0
   -2.5307    0.8067   -0.3244 C   0  0  2  0  0  0  0  0  0  0  0  0
   -2.5663    2.0538    0.5978 C   0  0  0  0  0  0  0  0  0  0  0  0
    0.8580   -1.5796   -0.6016 H   0  0  0  0  0  0  0  0  0  0  0  0
    1.6207   -2.5457    1.3589 H   0  0  0  0  0  0  0  0  0  0  0  0
    1.8970   -0.9514    2.1751 H   0  0  0  0  0  0  0  0  0  0  0  0
    4.0286   -0.9862    1.3710 H   0  0  0  0  0  0  0  0  0  0  0  0
    3.7309   -2.4490    0.3806 H   0  0  0  0  0  0  0  0  0  0  0  0
    3.9048   -1.9562   -1.9036 H   0  0  0  0  0  0  0  0  0  0  0  0
    6.0817   -0.7411    0.0141 H   0  0  0  0  0  0  0  0  0  0  0  0
    5.5111    0.7591    0.8685 H   0  0  0  0  0  0  0  0  0  0  0  0
    6.5421    0.8859   -0.6003 H   0  0  0  0  0  0  0  0  0  0  0  0
    2.9011    1.1425    1.3835 H   0  0  0  0  0  0  0  0  0  0  0  0
    1.3800    1.9362    0.9576 H   0  0  0  0  0  0  0  0  0  0  0  0
    2.8337    2.2613   -0.0091 H   0  0  0  0  0  0  0  0  0  0  0  0
    1.1808   -0.0073   -2.4867 H   0  0  0  0  0  0  0  0  0  0  0  0
    1.8687    1.6084   -2.1961 H   0  0  0  0  0  0  0  0  0  0  0  0
   -0.6410    1.4921   -2.4521 H   0  0  0  0  0  0  0  0  0  0  0  0
    0.1800    3.2411   -1.4503 H   0  0  0  0  0  0  0  0  0  0  0  0
   -0.1935    0.5311    1.3578 H   0  0  0  0  0  0  0  0  0  0  0  0
   -1.2387   -2.2575    0.5906 H   0  0  0  0  0  0  0  0  0  0  0  0
   -0.6279   -1.7188    2.1931 H   0  0  0  0  0  0  0  0  0  0  0  0
   -2.4437   -0.0597    2.3873 H   0  0  0  0  0  0  0  0  0  0  0  0
   -4.3110   -1.6432    2.7315 H   0  0  0  0  0  0  0  0  0  0  0  0
   -3.4190   -2.9099    1.7795 H   0  0  0  0  0  0  0  0  0  0  0  0
   -2.7500   -2.2869    3.3300 H   0  0  0  0  0  0  0  0  0  0  0  0
   -4.9044   -1.6839    0.4518 H   0  0  0  0  0  0  0  0  0  0  0  0
   -4.8324    1.0380   -2.9591 H   0  0  0  0  0  0  0  0  0  0  0  0
   -2.8261    2.0336   -2.2012 H   0  0  0  0  0  0  0  0  0  0  0  0
   -1.8637    1.9788    1.4491 H   0  0  0  0  0  0  0  0  0  0  0  0
   -2.3354    2.9888    0.0463 H   0  0  0  0  0  0  0  0  0  0  0  0
   -3.5882    2.1881    1.0153 H   0  0  0  0  0  0  0  0  0  0  0  0
  1  2  1  0
  2  3  1  0
  3  4  1  0
  4  5  1  6
  4  6  1  0
  6  7  1  0
  6  8  2  0
  4  9  1  0
  9 10  1  1
  9 11  1  0
 11 12  1  0
 12 13  1  0
 12 14  1  0
 14 15  1  6
 14 16  1  0
 16 17  1  0
 17 18  1  0
 18 19  1  0
 18 20  1  0
 20 21  2  0
 21 22  1  0
 22 23  2  0
 22 24  1  0
 24 25  2  0
 25 26  1  0
 26 27  1  1
  9  1  1  0
 26 14  1  0
 16  1  1  0
 26 20  1  0
  1 28  1  6
  2 29  1  0
  2 30  1  0
  3 31  1  0
  3 32  1  0
  5 33  1  0
  7 34  1  0
  7 35  1  0
  7 36  1  0
 10 37  1  0
 10 38  1  0
 10 39  1  0
 11 40  1  0
 11 41  1  0
 12 42  1  6
 13 43  1  0
 16 44  1  1
 17 45  1  0
 17 46  1  0
 18 47  1  1
 19 48  1  0
 19 49  1  0
 19 50  1  0
 21 51  1  0
 24 52  1  0
 25 53  1  0
 27 54  1  0
 27 55  1  0
 27 56  1  0
M  END
$$$$
