
     RDKit          3D

 94 93  0  0  0  0  0  0  0  0999 V2000
   -7.1568   -3.3841   -1.3385 C   0  0  0  0  0  0  0  0  0  0  0  0
   -5.8500   -3.1875   -0.5862 C   0  0  0  0  0  0  0  0  0  0  0  0
   -5.7224   -1.8253   -0.2389 O   0  0  0  0  0  0  0  0  0  0  0  0
   -4.4803   -1.5849    0.3980 C   0  0  0  0  0  0  0  0  0  0  0  0
   -4.5440   -2.0719    1.7318 O   0  0  0  0  0  0  0  0  0  0  0  0
   -3.5242   -3.0176    1.9791 C   0  0  0  0  0  0  0  0  0  0  0  0
   -3.6558   -3.5316    3.4036 C   0  0  0  0  0  0  0  0  0  0  0  0
   -4.2647   -0.0575    0.4464 C   0  0  2  0  0  0  0  0  0  0  0  0
   -4.1615    0.5610   -0.9698 C   0  0  0  0  0  0  0  0  0  0  0  0
   -4.0946    2.1007   -0.9623 C   0  0  0  0  0  0  0  0  0  0  0  0
   -5.4231    2.7783   -0.5950 C   0  0  0  0  0  0  0  0  0  0  0  0
   -6.4642    2.4572   -1.5733 N   0  0  0  0  0  0  0  0  0  0  0  0
   -7.5202    1.5140   -1.3314 C   0  0  0  0  0  0  0  0  0  0  0  0
   -8.4194    1.1750   -2.3899 N   0  0  0  0  0  0  0  0  0  0  0  0
   -7.6577    0.9652   -0.1655 N   0  0  0  0  0  0  0  0  0  0  0  0
   -3.0993    0.2963    1.2698 N   0  0  0  0  0  0  0  0  0  0  0  0
   -1.7346   -0.0215    0.9448 C   0  0  0  0  0  0  0  0  0  0  0  0
   -1.4696   -0.7797   -0.0273 O   0  0  0  0  0  0  0  0  0  0  0  0
   -0.6150    0.6179    1.7320 C   0  0  2  0  0  0  0  0  0  0  0  0
   -0.2641    2.0284    1.1967 C   0  0  0  0  0  0  0  0  0  0  0  0
   -0.0655    2.1540   -0.3370 C   0  0  0  0  0  0  0  0  0  0  0  0
    0.0670    3.6334   -0.7224 C   0  0  0  0  0  0  0  0  0  0  0  0
    1.1605    1.3793   -0.8341 C   0  0  0  0  0  0  0  0  0  0  0  0
    0.5712   -0.2476    1.8100 N   0  0  0  0  0  0  0  0  0  0  0  0
    1.5366   -0.1177    2.8660 C   0  0  0  0  0  0  0  0  0  0  0  0
    1.4254    0.8066    3.7172 O   0  0  0  0  0  0  0  0  0  0  0  0
    2.6540   -1.1151    3.0044 C   0  0  0  0  0  0  0  0  0  0  0  0
    4.0302   -0.4404    3.0499 C   0  0  0  0  0  0  0  0  0  0  0  0
    4.3993    0.1424    1.7184 C   0  0  0  0  0  0  0  0  0  0  0  0
    4.1065    1.3421    1.4652 O   0  0  0  0  0  0  0  0  0  0  0  0
    5.0602   -0.6717    0.7375 N   0  0  0  0  0  0  0  0  0  0  0  0
    5.3337   -0.2141   -0.6296 C   0  0  2  0  0  0  0  0  0  0  0  0
    4.2547   -0.8035   -1.5583 C   0  0  0  0  0  0  0  0  0  0  0  0
    4.2619   -0.1537   -2.9097 C   0  0  0  0  0  0  0  0  0  0  0  0
    3.9000    1.1808   -3.0432 O   0  0  0  0  0  1  0  0  0  0  0  0
    4.6052   -0.8106   -3.9275 O   0  0  0  0  0  0  0  0  0  0  0  0
    6.7606   -0.6671   -1.0720 C   0  0  0  0  0  0  0  0  0  0  0  0
    7.8953    0.1901   -0.6022 N   0  0  0  0  0  4  0  0  0  0  0  0
    7.8670    1.5214   -1.2576 C   0  0  0  0  0  0  0  0  0  0  0  0
    9.1624   -0.4820   -0.9837 C   0  0  0  0  0  0  0  0  0  0  0  0
    7.8875    0.3604    0.8696 C   0  0  0  0  0  0  0  0  0  0  0  0
   -7.1593   -2.7672   -2.2623 H   0  0  0  0  0  0  0  0  0  0  0  0
   -8.0129   -3.0828   -0.6981 H   0  0  0  0  0  0  0  0  0  0  0  0
   -7.2733   -4.4526   -1.6176 H   0  0  0  0  0  0  0  0  0  0  0  0
   -5.8762   -3.8247    0.3254 H   0  0  0  0  0  0  0  0  0  0  0  0
   -5.0171   -3.5140   -1.2496 H   0  0  0  0  0  0  0  0  0  0  0  0
   -3.6462   -2.0197   -0.2091 H   0  0  0  0  0  0  0  0  0  0  0  0
   -3.6081   -3.8835    1.2845 H   0  0  0  0  0  0  0  0  0  0  0  0
   -2.5205   -2.5523    1.8690 H   0  0  0  0  0  0  0  0  0  0  0  0
   -3.5580   -2.6895    4.1213 H   0  0  0  0  0  0  0  0  0  0  0  0
   -4.6454   -4.0165    3.5422 H   0  0  0  0  0  0  0  0  0  0  0  0
   -2.8575   -4.2755    3.6099 H   0  0  0  0  0  0  0  0  0  0  0  0
   -5.1662    0.3645    0.9399 H   0  0  0  0  0  0  0  0  0  0  0  0
   -5.0212    0.2349   -1.5917 H   0  0  0  0  0  0  0  0  0  0  0  0
   -3.2558    0.1763   -1.4821 H   0  0  0  0  0  0  0  0  0  0  0  0
   -3.7931    2.4450   -1.9756 H   0  0  0  0  0  0  0  0  0  0  0  0
   -3.3071    2.4440   -0.2582 H   0  0  0  0  0  0  0  0  0  0  0  0
   -5.7355    2.5103    0.4350 H   0  0  0  0  0  0  0  0  0  0  0  0
   -5.2667    3.8783   -0.5982 H   0  0  0  0  0  0  0  0  0  0  0  0
   -6.3724    2.8645   -2.5312 H   0  0  0  0  0  0  0  0  0  0  0  0
   -8.3137    1.6101   -3.3329 H   0  0  0  0  0  0  0  0  0  0  0  0
   -9.1895    0.4858   -2.2397 H   0  0  0  0  0  0  0  0  0  0  0  0
   -8.4145    0.2728    0.0311 H   0  0  0  0  0  0  0  0  0  0  0  0
   -3.2771    0.8794    2.1187 H   0  0  0  0  0  0  0  0  0  0  0  0
   -0.9975    0.7466    2.7691 H   0  0  0  0  0  0  0  0  0  0  0  0
   -1.0990    2.7028    1.4911 H   0  0  0  0  0  0  0  0  0  0  0  0
    0.6410    2.4084    1.7187 H   0  0  0  0  0  0  0  0  0  0  0  0
   -0.9615    1.7627   -0.8640 H   0  0  0  0  0  0  0  0  0  0  0  0
    0.9570    4.0871   -0.2352 H   0  0  0  0  0  0  0  0  0  0  0  0
   -0.8395    4.1949   -0.4103 H   0  0  0  0  0  0  0  0  0  0  0  0
    0.1682    3.7381   -1.8239 H   0  0  0  0  0  0  0  0  0  0  0  0
    1.3426    1.5942   -1.9084 H   0  0  0  0  0  0  0  0  0  0  0  0
    0.9903    0.2888   -0.7495 H   0  0  0  0  0  0  0  0  0  0  0  0
    2.0656    1.6604   -0.2565 H   0  0  0  0  0  0  0  0  0  0  0  0
    0.6806   -1.0472    1.1466 H   0  0  0  0  0  0  0  0  0  0  0  0
    2.6280   -1.8524    2.1726 H   0  0  0  0  0  0  0  0  0  0  0  0
    2.5005   -1.6781    3.9498 H   0  0  0  0  0  0  0  0  0  0  0  0
    4.7922   -1.1968    3.3368 H   0  0  0  0  0  0  0  0  0  0  0  0
    4.0489    0.3516    3.8303 H   0  0  0  0  0  0  0  0  0  0  0  0
    5.2228   -1.6794    0.9644 H   0  0  0  0  0  0  0  0  0  0  0  0
    5.2497    0.8891   -0.6789 H   0  0  0  0  0  0  0  0  0  0  0  0
    4.3990   -1.9020   -1.6598 H   0  0  0  0  0  0  0  0  0  0  0  0
    3.2533   -0.6441   -1.1069 H   0  0  0  0  0  0  0  0  0  0  0  0
    6.7933   -0.7237   -2.1837 H   0  0  0  0  0  0  0  0  0  0  0  0
    6.9067   -1.7176   -0.7293 H   0  0  0  0  0  0  0  0  0  0  0  0
    7.0170    2.1413   -0.9053 H   0  0  0  0  0  0  0  0  0  0  0  0
    8.7907    2.0992   -1.0283 H   0  0  0  0  0  0  0  0  0  0  0  0
    7.7927    1.4232   -2.3636 H   0  0  0  0  0  0  0  0  0  0  0  0
   10.0496    0.1187   -0.6800 H   0  0  0  0  0  0  0  0  0  0  0  0
    9.2509   -1.4786   -0.4952 H   0  0  0  0  0  0  0  0  0  0  0  0
    9.2196   -0.6336   -2.0853 H   0  0  0  0  0  0  0  0  0  0  0  0
    7.0430    1.0017    1.1994 H   0  0  0  0  0  0  0  0  0  0  0  0
    8.8184    0.8604    1.2204 H   0  0  0  0  0  0  0  0  0  0  0  0
    7.8113   -0.6233    1.3843 H   0  0  0  0  0  0  0  0  0  0  0  0
  1  2  1  0
  2  3  1  0
  3  4  1  0
  4  5  1  0
  5  6  1  0
  6  7  1  0
  4  8  1  0
  8  9  1  0
  9 10  1  0
 10 11  1  0
 11 12  1  0
 12 13  1  0
 13 14  1  0
 13 15  2  3
  8 16  1  0
 16 17  1  0
 17 18  2  0
 17 19  1  0
 19 20  1  0
 20 21  1  0
 21 22  1  0
 21 23  1  0
 19 24  1  0
 24 25  1  0
 25 26  2  0
 25 27  1  0
 27 28  1  0
 28 29  1  0
 29 30  2  0
 29 31  1  0
 31 32  1  0
 32 33  1  0
 33 34  1  0
 34 35  1  0
 34 36  2  0
 32 37  1  0
 37 38  1  0
 38 39  1  0
 38 40  1  0
 38 41  1  0
  1 42  1  0
  1 43  1  0
  1 44  1  0
  2 45  1  0
  2 46  1  0
  4 47  1  0
  6 48  1  0
  6 49  1  0
  7 50  1  0
  7 51  1  0
  7 52  1  0
  8 53  1  1
  9 54  1  0
  9 55  1  0
 10 56  1  0
 10 57  1  0
 11 58  1  0
 11 59  1  0
 12 60  1  0
 14 61  1  0
 14 62  1  0
 15 63  1  0
 16 64  1  0
 19 65  1  1
 20 66  1  0
 20 67  1  0
 21 68  1  0
 22 69  1  0
 22 70  1  0
 22 71  1  0
 23 72  1  0
 23 73  1  0
 23 74  1  0
 24 75  1  0
 27 76  1  0
 27 77  1  0
 28 78  1  0
 28 79  1  0
 31 80  1  0
 32 81  1  1
 33 82  1  0
 33 83  1  0
 37 84  1  0
 37 85  1  0
 39 86  1  0
 39 87  1  0
 39 88  1  0
 40 89  1  0
 40 90  1  0
 40 91  1  0
 41 92  1  0
 41 93  1  0
 41 94  1  0
M  CHG  2  35  -1  38   1
M  END
$$$$
