
     RDKit          3D

 34 35  0  0  0  0  0  0  0  0999 V2000
    5.1959    1.3582    0.4655 N   0  0  0  0  0  0  0  0  0  0  0  0
    5.3754   -0.0558    0.3145 C   0  0  0  0  0  0  0  0  0  0  0  0
    6.6579   -0.6255    0.5756 N   0  0  0  0  0  0  0  0  0  0  0  0
    4.4188   -0.8286   -0.1166 N   0  0  0  0  0  0  0  0  0  0  0  0
    3.0517   -0.4584   -0.3495 C   0  0  0  0  0  0  0  0  0  0  0  0
    2.3196    0.2747    0.6004 C   0  0  0  0  0  0  0  0  0  0  0  0
    0.9731    0.5744    0.3742 C   0  0  0  0  0  0  0  0  0  0  0  0
    0.3364    0.1335   -0.7965 C   0  0  0  0  0  0  0  0  0  0  0  0
   -1.1250    0.4277   -1.0224 C   0  0  0  0  0  0  0  0  0  0  0  0
   -2.0230   -0.5783   -0.3420 C   0  0  0  0  0  0  0  0  0  0  0  0
   -1.5497   -1.6966    0.0045 O   0  0  0  0  0  0  0  0  0  0  0  0
   -3.4654   -0.2992   -0.1113 C   0  0  0  0  0  0  0  0  0  0  0  0
   -4.1155    0.7794   -0.7452 C   0  0  0  0  0  0  0  0  0  0  0  0
   -5.4734    1.0229   -0.5163 C   0  0  0  0  0  0  0  0  0  0  0  0
   -6.1998    0.1959    0.3423 C   0  0  0  0  0  0  0  0  0  0  0  0
   -5.5708   -0.8790    0.9726 C   0  0  0  0  0  0  0  0  0  0  0  0
   -4.2135   -1.1282    0.7477 C   0  0  0  0  0  0  0  0  0  0  0  0
    1.0563   -0.6397   -1.7211 C   0  0  0  0  0  0  0  0  0  0  0  0
    2.4028   -0.9388   -1.4931 C   0  0  0  0  0  0  0  0  0  0  0  0
    4.3754    1.8591    0.0603 H   0  0  0  0  0  0  0  0  0  0  0  0
    5.9562    1.9364    0.8867 H   0  0  0  0  0  0  0  0  0  0  0  0
    7.4498   -0.0256    0.8965 H   0  0  0  0  0  0  0  0  0  0  0  0
    6.8194   -1.6497    0.4503 H   0  0  0  0  0  0  0  0  0  0  0  0
    2.7853    0.5978    1.5226 H   0  0  0  0  0  0  0  0  0  0  0  0
    0.4232    1.1402    1.1162 H   0  0  0  0  0  0  0  0  0  0  0  0
   -1.3488    0.4315   -2.1111 H   0  0  0  0  0  0  0  0  0  0  0  0
   -1.3466    1.4453   -0.6337 H   0  0  0  0  0  0  0  0  0  0  0  0
   -3.5860    1.4301   -1.4279 H   0  0  0  0  0  0  0  0  0  0  0  0
   -5.9638    1.8528   -1.0087 H   0  0  0  0  0  0  0  0  0  0  0  0
   -7.2508    0.3867    0.5173 H   0  0  0  0  0  0  0  0  0  0  0  0
   -6.1351   -1.5203    1.6373 H   0  0  0  0  0  0  0  0  0  0  0  0
   -3.7485   -1.9659    1.2523 H   0  0  0  0  0  0  0  0  0  0  0  0
    0.5734   -1.0163   -2.6143 H   0  0  0  0  0  0  0  0  0  0  0  0
    2.9450   -1.5407   -2.2116 H   0  0  0  0  0  0  0  0  0  0  0  0
  1  2  1  0
  2  3  1  0
  2  4  2  3
  4  5  1  0
  5  6  2  0
  6  7  1  0
  7  8  2  0
  8  9  1  0
  9 10  1  0
 10 11  2  0
 10 12  1  0
 12 13  2  0
 13 14  1  0
 14 15  2  0
 15 16  1  0
 16 17  2  0
  8 18  1  0
 18 19  2  0
 19  5  1  0
 17 12  1  0
  1 20  1  0
  1 21  1  0
  3 22  1  0
  3 23  1  0
  6 24  1  0
  7 25  1  0
  9 26  1  0
  9 27  1  0
 13 28  1  0
 14 29  1  0
 15 30  1  0
 16 31  1  0
 17 32  1  0
 18 33  1  0
 19 34  1  0
M  END
$$$$
