
     RDKit          3D

 47 50  0  0  0  0  0  0  0  0999 V2000
    6.4535   -1.9318   -3.7185 C   0  0  0  0  0  0  0  0  0  0  0  0
    6.3052   -1.1071   -2.4862 C   0  0  0  0  0  0  0  0  0  0  0  0
    7.3374   -0.5968   -1.7895 N   0  0  0  0  0  0  0  0  0  0  0  0
    6.8068    0.0433   -0.7592 N   0  0  0  0  0  0  0  0  0  0  0  0
    5.4709   -0.1054   -0.8648 C   0  0  0  0  0  0  0  0  0  0  0  0
    5.1578   -0.8151   -1.9237 O   0  0  0  0  0  0  0  0  0  0  0  0
    4.4891    0.4535    0.0856 C   0  0  0  0  0  0  0  0  0  0  0  0
    4.9133    1.2027    1.1918 C   0  0  0  0  0  0  0  0  0  0  0  0
    3.9820    1.7242    2.0910 C   0  0  0  0  0  0  0  0  0  0  0  0
    2.6076    1.5038    1.9083 C   0  0  0  0  0  0  0  0  0  0  0  0
    1.6405    2.0659    2.9177 C   0  0  0  0  0  0  0  0  0  0  0  0
    2.1681    0.7754    0.7754 C   0  0  0  0  0  0  0  0  0  0  0  0
    3.1167    0.2447   -0.1153 C   0  0  0  0  0  0  0  0  0  0  0  0
    0.7315    0.5478    0.4984 C   0  0  0  0  0  0  0  0  0  0  0  0
   -0.1332    1.6310    0.2837 C   0  0  0  0  0  0  0  0  0  0  0  0
   -1.4859    1.4113    0.0105 C   0  0  0  0  0  0  0  0  0  0  0  0
   -1.9998    0.1038   -0.0530 C   0  0  0  0  0  0  0  0  0  0  0  0
   -1.1236   -0.9801    0.1378 C   0  0  0  0  0  0  0  0  0  0  0  0
    0.2296   -0.7586    0.4098 C   0  0  0  0  0  0  0  0  0  0  0  0
   -3.4369   -0.1121   -0.3477 C   0  0  0  0  0  0  0  0  0  0  0  0
   -4.0745    0.7721   -0.9823 O   0  0  0  0  0  0  0  0  0  0  0  0
   -4.1166   -1.3007    0.0908 N   0  0  0  0  0  0  0  0  0  0  0  0
   -5.5004   -1.5922   -0.2756 C   0  0  0  0  0  0  0  0  0  0  0  0
   -6.4573   -0.7033    0.5281 C   0  0  0  0  0  0  0  0  0  0  0  0
   -7.9135   -0.8166    0.1018 C   0  0  0  0  0  0  0  0  0  0  0  0
   -7.1222    0.4380   -0.2284 C   0  0  0  0  0  0  0  0  0  0  0  0
    7.2889   -1.5408   -4.3362 H   0  0  0  0  0  0  0  0  0  0  0  0
    5.5164   -1.8947   -4.3124 H   0  0  0  0  0  0  0  0  0  0  0  0
    6.6662   -2.9835   -3.4358 H   0  0  0  0  0  0  0  0  0  0  0  0
    5.9668    1.3838    1.3651 H   0  0  0  0  0  0  0  0  0  0  0  0
    4.3375    2.2956    2.9398 H   0  0  0  0  0  0  0  0  0  0  0  0
    1.2415    3.0349    2.5533 H   0  0  0  0  0  0  0  0  0  0  0  0
    2.1386    2.2352    3.8961 H   0  0  0  0  0  0  0  0  0  0  0  0
    0.8005    1.3612    3.0927 H   0  0  0  0  0  0  0  0  0  0  0  0
    2.7798   -0.3203   -0.9770 H   0  0  0  0  0  0  0  0  0  0  0  0
    0.2418    2.6463    0.3169 H   0  0  0  0  0  0  0  0  0  0  0  0
   -2.1328    2.2661   -0.1441 H   0  0  0  0  0  0  0  0  0  0  0  0
   -1.4704   -2.0008    0.0522 H   0  0  0  0  0  0  0  0  0  0  0  0
    0.8871   -1.6074    0.5538 H   0  0  0  0  0  0  0  0  0  0  0  0
   -3.6235   -1.9883    0.7023 H   0  0  0  0  0  0  0  0  0  0  0  0
   -5.6304   -1.4767   -1.3743 H   0  0  0  0  0  0  0  0  0  0  0  0
   -5.7230   -2.6518   -0.0246 H   0  0  0  0  0  0  0  0  0  0  0  0
   -6.3125   -0.5659    1.6211 H   0  0  0  0  0  0  0  0  0  0  0  0
   -8.1194   -1.4615   -0.7797 H   0  0  0  0  0  0  0  0  0  0  0  0
   -8.6485   -0.6791    0.9229 H   0  0  0  0  0  0  0  0  0  0  0  0
   -7.3841    1.3141    0.4015 H   0  0  0  0  0  0  0  0  0  0  0  0
   -6.8664    0.5359   -1.3049 H   0  0  0  0  0  0  0  0  0  0  0  0
  1  2  1  0
  2  3  2  0
  3  4  1  0
  4  5  2  0
  5  6  1  0
  5  7  1  0
  7  8  2  0
  8  9  1  0
  9 10  2  0
 10 11  1  0
 10 12  1  0
 12 13  2  0
 12 14  1  0
 14 15  2  0
 15 16  1  0
 16 17  2  0
 17 18  1  0
 18 19  2  0
 17 20  1  0
 20 21  2  0
 20 22  1  0
 22 23  1  0
 23 24  1  0
 24 25  1  0
 25 26  1  0
  6  2  1  0
 13  7  1  0
 19 14  1  0
 26 24  1  0
  1 27  1  0
  1 28  1  0
  1 29  1  0
  8 30  1  0
  9 31  1  0
 11 32  1  0
 11 33  1  0
 11 34  1  0
 13 35  1  0
 15 36  1  0
 16 37  1  0
 18 38  1  0
 19 39  1  0
 22 40  1  0
 23 41  1  0
 23 42  1  0
 24 43  1  0
 25 44  1  0
 25 45  1  0
 26 46  1  0
 26 47  1  0
M  END
$$$$
