
     RDKit          3D

 56 57  0  0  0  0  0  0  0  0999 V2000
   -1.5074    5.7437    0.8414 C   0  0  0  0  0  0  0  0  0  0  0  0
   -1.6969    4.3089    0.3587 C   0  0  0  0  0  0  0  0  0  0  0  0
   -1.2643    4.1563   -1.1061 C   0  0  0  0  0  0  0  0  0  0  0  0
   -1.4672    2.7277   -1.6271 C   0  0  0  0  0  0  0  0  0  0  0  0
   -0.5128    1.7612   -0.9794 C   0  0  0  0  0  0  0  0  0  0  0  0
    0.8034    1.7220   -1.3156 N   0  0  0  0  0  0  0  0  0  0  0  0
    1.2956    0.7630   -0.5124 C   0  0  0  0  0  0  0  0  0  0  0  0
    2.6050    0.2944   -0.4626 C   0  0  0  0  0  0  0  0  0  0  0  0
    2.9136   -0.7409    0.4490 C   0  0  0  0  0  0  0  0  0  0  0  0
    4.3074   -1.2478    0.4914 C   0  0  0  0  0  0  0  0  0  0  0  0
    4.8272   -1.9076    1.5370 C   0  0  0  0  0  0  0  0  0  0  0  0
    6.2166   -2.4088    1.5729 C   0  0  0  0  0  0  0  0  0  0  0  0
    6.5191   -3.2773    2.4341 O   0  0  0  0  0  0  0  0  0  0  0  0
    7.2308   -1.9219    0.6844 N   0  0  0  0  0  0  0  0  0  0  0  0
    8.4597   -2.4915    0.6770 O   0  0  0  0  0  0  0  0  0  0  0  0
    1.8768   -1.2838    1.2609 C   0  0  0  0  0  0  0  0  0  0  0  0
    0.5647   -0.7837    1.1822 C   0  0  0  0  0  0  0  0  0  0  0  0
    0.3138    0.2506    0.2806 C   0  0  0  0  0  0  0  0  0  0  0  0
   -0.8439    0.8788    0.0058 N   0  0  0  0  0  0  0  0  0  0  0  0
   -2.1726    0.5862    0.5557 C   0  0  0  0  0  0  0  0  0  0  0  0
   -2.9223   -0.4090   -0.3338 C   0  0  0  0  0  0  0  0  0  0  0  0
   -2.2328   -1.7222   -0.3167 N   0  0  0  0  0  0  0  0  0  0  0  0
   -3.0599   -2.8162    0.2360 C   0  0  0  0  0  0  0  0  0  0  0  0
   -3.1489   -2.7155    1.7566 C   0  0  0  0  0  0  0  0  0  0  0  0
   -1.6179   -2.0696   -1.6188 C   0  0  0  0  0  0  0  0  0  0  0  0
   -2.6360   -2.4723   -2.6960 C   0  0  0  0  0  0  0  0  0  0  0  0
   -2.1203    6.4407    0.2309 H   0  0  0  0  0  0  0  0  0  0  0  0
   -1.8279    5.8246    1.9014 H   0  0  0  0  0  0  0  0  0  0  0  0
   -0.4381    6.0364    0.7703 H   0  0  0  0  0  0  0  0  0  0  0  0
   -2.7692    4.0351    0.4625 H   0  0  0  0  0  0  0  0  0  0  0  0
   -1.0947    3.6347    1.0052 H   0  0  0  0  0  0  0  0  0  0  0  0
   -1.8693    4.8456   -1.7350 H   0  0  0  0  0  0  0  0  0  0  0  0
   -0.1959    4.4460   -1.2178 H   0  0  0  0  0  0  0  0  0  0  0  0
   -2.5223    2.4163   -1.4868 H   0  0  0  0  0  0  0  0  0  0  0  0
   -1.2756    2.7206   -2.7215 H   0  0  0  0  0  0  0  0  0  0  0  0
    3.3619    0.7217   -1.1093 H   0  0  0  0  0  0  0  0  0  0  0  0
    4.9237   -1.0465   -0.3739 H   0  0  0  0  0  0  0  0  0  0  0  0
    4.2200   -2.1114    2.4078 H   0  0  0  0  0  0  0  0  0  0  0  0
    7.0720   -1.0792    0.0904 H   0  0  0  0  0  0  0  0  0  0  0  0
    8.4156   -3.1802   -0.0345 H   0  0  0  0  0  0  0  0  0  0  0  0
    2.0644   -2.1073    1.9348 H   0  0  0  0  0  0  0  0  0  0  0  0
   -0.2175   -1.2031    1.7984 H   0  0  0  0  0  0  0  0  0  0  0  0
   -2.0838    0.1819    1.5857 H   0  0  0  0  0  0  0  0  0  0  0  0
   -2.7619    1.5224    0.6397 H   0  0  0  0  0  0  0  0  0  0  0  0
   -2.9912    0.0171   -1.3581 H   0  0  0  0  0  0  0  0  0  0  0  0
   -3.9689   -0.4854    0.0361 H   0  0  0  0  0  0  0  0  0  0  0  0
   -2.6019   -3.8030    0.0011 H   0  0  0  0  0  0  0  0  0  0  0  0
   -4.0828   -2.8048   -0.2025 H   0  0  0  0  0  0  0  0  0  0  0  0
   -2.1314   -2.7302    2.2000 H   0  0  0  0  0  0  0  0  0  0  0  0
   -3.7213   -3.5804    2.1530 H   0  0  0  0  0  0  0  0  0  0  0  0
   -3.6683   -1.7835    2.0612 H   0  0  0  0  0  0  0  0  0  0  0  0
   -0.9004   -2.9058   -1.4719 H   0  0  0  0  0  0  0  0  0  0  0  0
   -1.0181   -1.2108   -1.9924 H   0  0  0  0  0  0  0  0  0  0  0  0
   -3.4153   -1.6946   -2.8282 H   0  0  0  0  0  0  0  0  0  0  0  0
   -2.1095   -2.6058   -3.6644 H   0  0  0  0  0  0  0  0  0  0  0  0
   -3.1229   -3.4353   -2.4371 H   0  0  0  0  0  0  0  0  0  0  0  0
  1  2  1  0
  2  3  1  0
  3  4  1  0
  4  5  1  0
  5  6  2  0
  6  7  1  0
  7  8  2  0
  8  9  1  0
  9 10  1  0
 10 11  2  0
 11 12  1  0
 12 13  2  0
 12 14  1  0
 14 15  1  0
  9 16  2  0
 16 17  1  0
 17 18  2  0
 18 19  1  0
 19 20  1  0
 20 21  1  0
 21 22  1  0
 22 23  1  0
 23 24  1  0
 22 25  1  0
 25 26  1  0
 19  5  1  0
 18  7  1  0
  1 27  1  0
  1 28  1  0
  1 29  1  0
  2 30  1  0
  2 31  1  0
  3 32  1  0
  3 33  1  0
  4 34  1  0
  4 35  1  0
  8 36  1  0
 10 37  1  0
 11 38  1  0
 14 39  1  0
 15 40  1  0
 16 41  1  0
 17 42  1  0
 20 43  1  0
 20 44  1  0
 21 45  1  0
 21 46  1  0
 23 47  1  0
 23 48  1  0
 24 49  1  0
 24 50  1  0
 24 51  1  0
 25 52  1  0
 25 53  1  0
 26 54  1  0
 26 55  1  0
 26 56  1  0
M  END
$$$$
