
     RDKit          3D

 35 36  0  0  0  0  0  0  0  0999 V2000
   -4.3260   -0.6796    1.0311 N   0  0  0  0  0  0  0  0  0  0  0  0
   -4.2340    0.4277    0.0755 C   0  0  1  0  0  0  0  0  0  0  0  0
   -3.2158    0.1057   -1.0325 C   0  0  0  0  0  0  0  0  0  0  0  0
   -1.8280   -0.0654   -0.4693 C   0  0  0  0  0  0  0  0  0  0  0  0
   -1.0243    1.0573   -0.2206 C   0  0  0  0  0  0  0  0  0  0  0  0
    0.2530    0.9083    0.3298 C   0  0  0  0  0  0  0  0  0  0  0  0
    1.3839    2.6504    0.7401 I   0  0  0  0  0  0  0  0  0  0  0  0
    0.7390   -0.3762    0.6365 C   0  0  0  0  0  0  0  0  0  0  0  0
    2.0157   -0.5496    1.1813 O   0  0  0  0  0  0  0  0  0  0  0  0
    3.2083   -0.3564    0.4679 C   0  0  0  0  0  0  0  0  0  0  0  0
    4.4167   -0.3667    1.1722 C   0  0  0  0  0  0  0  0  0  0  0  0
    5.6351   -0.1797    0.5080 C   0  0  0  0  0  0  0  0  0  0  0  0
    7.4068   -0.2042    1.6695 I   0  0  0  0  0  0  0  0  0  0  0  0
    5.6466    0.0156   -0.8879 C   0  0  0  0  0  0  0  0  0  0  0  0
    6.8327    0.2074   -1.5969 O   0  0  0  0  0  0  0  0  0  0  0  0
    4.4388    0.0177   -1.5938 C   0  0  0  0  0  0  0  0  0  0  0  0
    3.2265   -0.1692   -0.9259 C   0  0  0  0  0  0  0  0  0  0  0  0
   -0.0740   -1.4973    0.4144 C   0  0  0  0  0  0  0  0  0  0  0  0
    0.6128   -3.4405    0.8850 I   0  0  0  0  0  0  0  0  0  0  0  0
   -1.3494   -1.3415   -0.1367 C   0  0  0  0  0  0  0  0  0  0  0  0
   -5.5830    0.7321   -0.5205 C   0  0  0  0  0  0  0  0  0  0  0  0
   -6.1414    1.9960   -0.3566 O   0  0  0  0  0  0  0  0  0  0  0  0
   -6.2071   -0.1497   -1.1706 O   0  0  0  0  0  0  0  0  0  0  0  0
   -4.9964   -0.4139    1.7892 H   0  0  0  0  0  0  0  0  0  0  0  0
   -4.7126   -1.5258    0.5518 H   0  0  0  0  0  0  0  0  0  0  0  0
   -3.8835    1.3333    0.6199 H   0  0  0  0  0  0  0  0  0  0  0  0
   -3.5228   -0.8151   -1.5766 H   0  0  0  0  0  0  0  0  0  0  0  0
   -3.2056    0.9320   -1.7778 H   0  0  0  0  0  0  0  0  0  0  0  0
   -1.3954    2.0495   -0.4459 H   0  0  0  0  0  0  0  0  0  0  0  0
    4.4068   -0.5167    2.2444 H   0  0  0  0  0  0  0  0  0  0  0  0
    7.7420    0.2181   -1.1544 H   0  0  0  0  0  0  0  0  0  0  0  0
    4.4405    0.1632   -2.6667 H   0  0  0  0  0  0  0  0  0  0  0  0
    2.3088   -0.1714   -1.4990 H   0  0  0  0  0  0  0  0  0  0  0  0
   -1.9678   -2.2147   -0.3038 H   0  0  0  0  0  0  0  0  0  0  0  0
   -7.0468    2.2192   -0.7522 H   0  0  0  0  0  0  0  0  0  0  0  0
  1  2  1  0
  2  3  1  0
  3  4  1  0
  4  5  2  0
  5  6  1  0
  6  7  1  0
  6  8  2  0
  8  9  1  0
  9 10  1  0
 10 11  2  0
 11 12  1  0
 12 13  1  0
 12 14  2  0
 14 15  1  0
 14 16  1  0
 16 17  2  0
  8 18  1  0
 18 19  1  0
 18 20  2  0
  2 21  1  0
 21 22  1  0
 21 23  2  0
 20  4  1  0
 17 10  1  0
  1 24  1  0
  1 25  1  0
  2 26  1  1
  3 27  1  0
  3 28  1  0
  5 29  1  0
 11 30  1  0
 15 31  1  0
 16 32  1  0
 17 33  1  0
 20 34  1  0
 22 35  1  0
M  END
$$$$
