
     RDKit          3D

 82 87  0  0  0  0  0  0  0  0999 V2000
    1.2475   -1.0208   -1.9334 C   0  0  1  0  0  0  0  0  0  0  0  0
    0.1611    0.0613   -1.7495 C   0  0  0  0  0  0  0  0  0  0  0  0
    0.2672    0.7801   -0.5375 O   0  0  0  0  0  0  0  0  0  0  0  0
    1.2936    2.1359   -0.6994 P   0  0  0  0  0  5  0  0  0  0  0  0
    1.1462    2.8966   -2.2096 O   0  0  0  0  0  0  0  0  0  0  0  0
    2.7208    1.6747   -0.5290 O   0  0  0  0  0  0  0  0  0  0  0  0
    0.9705    3.2407    0.5563 O   0  0  0  0  0  0  0  0  0  0  0  0
   -0.6182    3.8305    0.3612 P   0  0  0  0  0  5  0  0  0  0  0  0
   -1.7147    2.5855    0.0185 O   0  0  0  0  0  0  0  0  0  0  0  0
   -0.6392    4.8307   -0.7727 O   0  0  0  0  0  0  0  0  0  0  0  0
   -1.1250    4.6356    1.7724 O   0  0  0  0  0  0  0  0  0  0  0  0
   -0.7246    3.6538    3.1040 P   0  0  0  0  0  5  0  0  0  0  0  0
   -1.5352    4.2563    4.4628 O   0  0  0  0  0  0  0  0  0  0  0  0
    0.7670    3.7245    3.3513 O   0  0  0  0  0  0  0  0  0  0  0  0
   -1.2003    2.0369    2.8330 O   0  0  0  0  0  0  0  0  0  0  0  0
   -0.8954    1.2844    3.9852 C   0  0  0  0  0  0  0  0  0  0  0  0
   -1.3435   -0.1711    3.7958 C   0  0  1  0  0  0  0  0  0  0  0  0
   -2.7439   -0.2093    3.6063 O   0  0  0  0  0  0  0  0  0  0  0  0
   -3.0065   -0.8919    2.3992 C   0  0  1  0  0  0  0  0  0  0  0  0
   -4.0882   -0.2230    1.6710 N   0  0  0  0  0  0  0  0  0  0  0  0
   -4.3358    1.1131    1.6182 C   0  0  0  0  0  0  0  0  0  0  0  0
   -5.3175    1.4209    0.7327 N   0  0  0  0  0  4  0  0  0  0  0  0
   -5.7848    2.7556    0.3748 C   0  0  0  0  0  0  0  0  0  0  0  0
   -5.6776    0.2374    0.1996 C   0  0  0  0  0  0  0  0  0  0  0  0
   -4.9355   -0.7497    0.7644 C   0  0  0  0  0  0  0  0  0  0  0  0
   -5.0463   -2.0484    0.3828 N   0  0  0  0  0  0  0  0  0  0  0  0
   -5.9512   -2.3605   -0.6004 C   0  0  0  0  0  0  0  0  0  0  0  0
   -6.0974   -3.5852   -0.9940 N   0  0  0  0  0  0  0  0  0  0  0  0
   -6.7077   -1.3744   -1.1803 N   0  0  0  0  0  0  0  0  0  0  0  0
   -6.5900   -0.0664   -0.8052 C   0  0  0  0  0  0  0  0  0  0  0  0
   -7.3578    0.9187   -1.4170 O   0  0  0  0  0  0  0  0  0  0  0  0
   -1.7351   -0.9133    1.5622 C   0  0  2  0  0  0  0  0  0  0  0  0
   -1.6401   -2.0788    0.7844 O   0  0  0  0  0  0  0  0  0  0  0  0
   -0.6450   -0.8434    2.6041 C   0  0  2  0  0  0  0  0  0  0  0  0
   -0.1576   -2.1200    2.9508 O   0  0  0  0  0  0  0  0  0  0  0  0
    2.3901   -0.4855   -2.5627 O   0  0  0  0  0  0  0  0  0  0  0  0
    3.4530   -1.3307   -2.1875 C   0  0  1  0  0  0  0  0  0  0  0  0
    4.7438   -0.6561   -2.3686 N   0  0  0  0  0  0  0  0  0  0  0  0
    4.9829    0.6740   -2.5230 C   0  0  0  0  0  0  0  0  0  0  0  0
    6.3038    0.9778   -2.6441 N   0  0  0  0  0  0  0  0  0  0  0  0
    6.8944   -0.2277   -2.5604 C   0  0  0  0  0  0  0  0  0  0  0  0
    5.9697   -1.2026   -2.4015 C   0  0  0  0  0  0  0  0  0  0  0  0
    6.3043   -2.5168   -2.3307 N   0  0  0  0  0  0  0  0  0  0  0  0
    7.6338   -2.8504   -2.4012 C   0  0  0  0  0  0  0  0  0  0  0  0
    8.0053   -4.0887   -2.3317 N   0  0  0  0  0  0  0  0  0  0  0  0
    8.5832   -1.8716   -2.5511 N   0  0  0  0  0  0  0  0  0  0  0  0
    8.2432   -0.5524   -2.6371 C   0  0  0  0  0  0  0  0  0  0  0  0
    9.2280    0.4186   -2.7985 O   0  0  0  0  0  0  0  0  0  0  0  0
    3.2168   -1.7077   -0.7310 C   0  0  2  0  0  0  0  0  0  0  0  0
    3.7870   -2.9540   -0.4277 O   0  0  0  0  0  0  0  0  0  0  0  0
    1.6952   -1.7183   -0.6316 C   0  0  2  0  0  0  0  0  0  0  0  0
    1.1611   -3.0188   -0.5337 O   0  0  0  0  0  0  0  0  0  0  0  0
    0.8203   -1.7760   -2.6334 H   0  0  0  0  0  0  0  0  0  0  0  0
   -0.8178   -0.4623   -1.7172 H   0  0  0  0  0  0  0  0  0  0  0  0
    0.0998    0.7072   -2.6501 H   0  0  0  0  0  0  0  0  0  0  0  0
    0.1737    2.9829   -2.3715 H   0  0  0  0  0  0  0  0  0  0  0  0
   -2.5959    3.0334   -0.0395 H   0  0  0  0  0  0  0  0  0  0  0  0
   -1.2623    5.2067    4.5193 H   0  0  0  0  0  0  0  0  0  0  0  0
    0.2005    1.2914    4.1847 H   0  0  0  0  0  0  0  0  0  0  0  0
   -1.4290    1.6894    4.8748 H   0  0  0  0  0  0  0  0  0  0  0  0
   -1.1018   -0.7184    4.7341 H   0  0  0  0  0  0  0  0  0  0  0  0
   -3.3144   -1.9291    2.6579 H   0  0  0  0  0  0  0  0  0  0  0  0
   -3.7901    1.8525    2.1900 H   0  0  0  0  0  0  0  0  0  0  0  0
   -6.8890    2.8069    0.4758 H   0  0  0  0  0  0  0  0  0  0  0  0
   -5.4955    2.9840   -0.6723 H   0  0  0  0  0  0  0  0  0  0  0  0
   -5.3328    3.5170    1.0456 H   0  0  0  0  0  0  0  0  0  0  0  0
   -4.4584   -2.7894    0.8256 H   0  0  0  0  0  0  0  0  0  0  0  0
   -5.5420   -4.3689   -0.5830 H   0  0  0  0  0  0  0  0  0  0  0  0
   -8.0170    0.6829   -2.1488 H   0  0  0  0  0  0  0  0  0  0  0  0
   -1.6819   -0.0040    0.9210 H   0  0  0  0  0  0  0  0  0  0  0  0
   -2.1829   -1.9195   -0.0307 H   0  0  0  0  0  0  0  0  0  0  0  0
    0.2085   -0.2392    2.2245 H   0  0  0  0  0  0  0  0  0  0  0  0
   -0.9172   -2.6590    3.2968 H   0  0  0  0  0  0  0  0  0  0  0  0
    3.4274   -2.2402   -2.8325 H   0  0  0  0  0  0  0  0  0  0  0  0
    4.2061    1.4238   -2.5711 H   0  0  0  0  0  0  0  0  0  0  0  0
    5.5703   -3.2535   -2.2395 H   0  0  0  0  0  0  0  0  0  0  0  0
    7.3180   -4.8673   -2.2191 H   0  0  0  0  0  0  0  0  0  0  0  0
    8.9956    1.4025   -2.8647 H   0  0  0  0  0  0  0  0  0  0  0  0
    3.6368   -0.9149   -0.0674 H   0  0  0  0  0  0  0  0  0  0  0  0
    3.7487   -3.0458    0.5599 H   0  0  0  0  0  0  0  0  0  0  0  0
    1.3996   -1.1592    0.2787 H   0  0  0  0  0  0  0  0  0  0  0  0
    1.4668   -3.5398   -1.3222 H   0  0  0  0  0  0  0  0  0  0  0  0
  1  2  1  0
  2  3  1  0
  3  4  1  0
  4  5  1  0
  4  6  2  0
  4  7  1  0
  7  8  1  0
  8  9  1  0
  8 10  2  0
  8 11  1  0
 11 12  1  0
 12 13  1  0
 12 14  2  0
 12 15  1  0
 15 16  1  0
 16 17  1  0
 17 18  1  0
 18 19  1  0
 19 20  1  0
 20 21  1  0
 21 22  2  0
 22 23  1  0
 22 24  1  0
 24 25  2  0
 25 26  1  0
 26 27  1  0
 27 28  2  3
 27 29  1  0
 29 30  2  0
 30 31  1  0
 19 32  1  0
 32 33  1  0
 32 34  1  0
 34 35  1  0
  1 36  1  0
 36 37  1  0
 37 38  1  0
 38 39  1  0
 39 40  2  0
 40 41  1  0
 41 42  2  0
 42 43  1  0
 43 44  1  0
 44 45  2  3
 44 46  1  0
 46 47  2  0
 47 48  1  0
 37 49  1  0
 49 50  1  0
 49 51  1  0
 51 52  1  0
 51  1  1  0
 34 17  1  0
 42 38  1  0
 25 20  1  0
 47 41  1  0
 30 24  1  0
  1 53  1  6
  2 54  1  0
  2 55  1  0
  5 56  1  0
  9 57  1  0
 13 58  1  0
 16 59  1  0
 16 60  1  0
 17 61  1  1
 19 62  1  1
 21 63  1  0
 23 64  1  0
 23 65  1  0
 23 66  1  0
 26 67  1  0
 28 68  1  0
 31 69  1  0
 32 70  1  6
 33 71  1  0
 34 72  1  6
 35 73  1  0
 37 74  1  6
 39 75  1  0
 43 76  1  0
 45 77  1  0
 48 78  1  0
 49 79  1  1
 50 80  1  0
 51 81  1  1
 52 82  1  0
M  CHG  1  22   1
M  END
$$$$
