
     RDKit          3D

 43 45  0  0  0  0  0  0  0  0999 V2000
   -4.5084    1.4057   -0.3107 C   0  0  0  0  0  0  0  0  0  0  0  0
   -3.6569    0.4034    0.4985 C   0  0  0  0  0  0  0  0  0  0  0  0
   -4.5687   -0.7879    0.8791 C   0  0  0  0  0  0  0  0  0  0  0  0
   -3.1865    1.0709    1.8091 C   0  0  0  0  0  0  0  0  0  0  0  0
   -2.4281   -0.0172   -0.3338 C   0  0  0  0  0  0  0  0  0  0  0  0
   -2.1765   -1.3608   -0.7036 C   0  0  0  0  0  0  0  0  0  0  0  0
   -1.0470   -1.6992   -1.4540 C   0  0  0  0  0  0  0  0  0  0  0  0
   -0.1414   -0.7134   -1.8497 C   0  0  0  0  0  0  0  0  0  0  0  0
    1.3163   -1.1590   -2.7955 S   0  0  0  0  0  0  0  0  0  0  0  0
    2.3105   -1.4331   -1.3167 C   0  0  0  0  0  0  0  0  0  0  0  0
    2.2375   -2.7154   -0.7530 C   0  0  0  0  0  0  0  0  0  0  0  0
    2.7972   -2.9811    0.4944 C   0  0  0  0  0  0  0  0  0  0  0  0
    3.4151   -1.9621    1.2127 C   0  0  0  0  0  0  0  0  0  0  0  0
    3.5230   -0.6805    0.6659 C   0  0  0  0  0  0  0  0  0  0  0  0
    3.0319   -0.4065   -0.6385 C   0  0  0  0  0  0  0  0  0  0  0  0
    3.2715    0.8985   -1.1501 C   0  0  0  0  0  0  0  0  0  0  0  0
    3.0633    1.2415   -2.5216 N   0  0  0  0  0  0  0  0  0  0  0  0
    3.8301    1.8405   -0.3449 N   0  0  0  0  0  0  0  0  0  0  0  0
    4.2192    1.5625    0.9229 C   0  0  0  0  0  0  0  0  0  0  0  0
    4.8015    2.5824    1.7309 N   0  0  0  0  0  0  0  0  0  0  0  0
    4.0895    0.3047    1.4074 N   0  0  0  0  0  0  0  0  0  0  0  0
   -0.3751    0.6187   -1.5050 C   0  0  0  0  0  0  0  0  0  0  0  0
   -1.5015    0.9640   -0.7550 C   0  0  0  0  0  0  0  0  0  0  0  0
   -5.4234    1.6909    0.2527 H   0  0  0  0  0  0  0  0  0  0  0  0
   -4.8199    0.9553   -1.2780 H   0  0  0  0  0  0  0  0  0  0  0  0
   -3.9469    2.3388   -0.5255 H   0  0  0  0  0  0  0  0  0  0  0  0
   -4.0152   -1.5297    1.4946 H   0  0  0  0  0  0  0  0  0  0  0  0
   -4.9672   -1.2881   -0.0300 H   0  0  0  0  0  0  0  0  0  0  0  0
   -5.4397   -0.4423    1.4776 H   0  0  0  0  0  0  0  0  0  0  0  0
   -2.6143    2.0013    1.6114 H   0  0  0  0  0  0  0  0  0  0  0  0
   -4.0553    1.3444    2.4465 H   0  0  0  0  0  0  0  0  0  0  0  0
   -2.5360    0.3768    2.3842 H   0  0  0  0  0  0  0  0  0  0  0  0
   -2.8384   -2.1658   -0.4221 H   0  0  0  0  0  0  0  0  0  0  0  0
   -0.8739   -2.7338   -1.7220 H   0  0  0  0  0  0  0  0  0  0  0  0
    1.7036   -3.5051   -1.2668 H   0  0  0  0  0  0  0  0  0  0  0  0
    2.7171   -3.9720    0.9226 H   0  0  0  0  0  0  0  0  0  0  0  0
    3.8083   -2.1691    2.2006 H   0  0  0  0  0  0  0  0  0  0  0  0
    3.0074    2.2473   -2.7965 H   0  0  0  0  0  0  0  0  0  0  0  0
    3.2706    0.5553   -3.2790 H   0  0  0  0  0  0  0  0  0  0  0  0
    5.1164    2.3709    2.7037 H   0  0  0  0  0  0  0  0  0  0  0  0
    4.9172    3.5508    1.3579 H   0  0  0  0  0  0  0  0  0  0  0  0
    0.3170    1.3911   -1.8135 H   0  0  0  0  0  0  0  0  0  0  0  0
   -1.6437    2.0062   -0.5044 H   0  0  0  0  0  0  0  0  0  0  0  0
  1  2  1  0
  2  3  1  0
  2  4  1  0
  2  5  1  0
  5  6  2  0
  6  7  1  0
  7  8  2  0
  8  9  1  0
  9 10  1  0
 10 11  2  0
 11 12  1  0
 12 13  2  0
 13 14  1  0
 14 15  2  0
 15 16  1  0
 16 17  1  0
 16 18  2  0
 18 19  1  0
 19 20  1  0
 19 21  2  0
  8 22  1  0
 22 23  2  0
 23  5  1  0
 15 10  1  0
 21 14  1  0
  1 24  1  0
  1 25  1  0
  1 26  1  0
  3 27  1  0
  3 28  1  0
  3 29  1  0
  4 30  1  0
  4 31  1  0
  4 32  1  0
  6 33  1  0
  7 34  1  0
 11 35  1  0
 12 36  1  0
 13 37  1  0
 17 38  1  0
 17 39  1  0
 20 40  1  0
 20 41  1  0
 22 42  1  0
 23 43  1  0
M  END
$$$$
