
     RDKit          3D

 14 13  0  0  0  0  0  0  0  0999 V2000
    0.2752   -1.7821    0.5798 N   0  0  0  0  0  0  0  0  0  0  0  0
    0.0322   -0.3450    0.7226 C   0  0  2  0  0  0  0  0  0  0  0  0
   -1.1166    0.1168   -0.1888 C   0  0  0  0  0  0  0  0  0  0  0  0
   -1.3946    1.4710    0.0406 O   0  0  0  0  0  0  0  0  0  0  0  0
    1.2939    0.4156    0.4262 C   0  0  0  0  0  0  0  0  0  0  0  0
    1.8035    1.3035    1.3687 O   0  0  0  0  0  0  0  0  0  0  0  0
    1.8847    0.2649   -0.6774 O   0  0  0  0  0  0  0  0  0  0  0  0
    0.4043   -2.0165   -0.4321 H   0  0  0  0  0  0  0  0  0  0  0  0
   -0.5721   -2.2985    0.9111 H   0  0  0  0  0  0  0  0  0  0  0  0
   -0.2574   -0.1436    1.7783 H   0  0  0  0  0  0  0  0  0  0  0  0
   -0.8425   -0.0366   -1.2573 H   0  0  0  0  0  0  0  0  0  0  0  0
   -2.0251   -0.4871    0.0328 H   0  0  0  0  0  0  0  0  0  0  0  0
   -2.1350    1.7084   -0.5761 H   0  0  0  0  0  0  0  0  0  0  0  0
    2.6493    1.8292    1.1830 H   0  0  0  0  0  0  0  0  0  0  0  0
  1  2  1  0
  2  3  1  0
  3  4  1  0
  2  5  1  0
  5  6  1  0
  5  7  2  0
  1  8  1  0
  1  9  1  0
  2 10  1  1
  3 11  1  0
  3 12  1  0
  4 13  1  0
  6 14  1  0
M  END
$$$$
