
     RDKit          3D

 20 20  0  0  0  0  0  0  0  0999 V2000
    3.6506   -0.3856   -0.4065 C   0  0  0  0  0  0  0  0  0  0  0  0
    2.5001    0.4505   -0.4751 O   0  0  0  0  0  0  0  0  0  0  0  0
    1.1914    0.0206   -0.2091 C   0  0  0  0  0  0  0  0  0  0  0  0
    0.8931   -1.3045    0.1572 C   0  0  0  0  0  0  0  0  0  0  0  0
   -0.4262   -1.6807    0.4156 C   0  0  0  0  0  0  0  0  0  0  0  0
   -1.4595   -0.7473    0.3074 C   0  0  0  0  0  0  0  0  0  0  0  0
   -1.1835    0.5797   -0.0683 C   0  0  0  0  0  0  0  0  0  0  0  0
    0.1511    0.9523   -0.3150 C   0  0  0  0  0  0  0  0  0  0  0  0
   -2.2667    1.5871   -0.1831 C   0  0  0  0  0  0  0  0  0  0  0  0
   -3.6257    1.2020   -0.4077 N   0  0  0  0  0  0  0  0  0  0  0  0
   -1.9891    2.8138   -0.0955 O   0  0  0  0  0  0  0  0  0  0  0  0
    3.5591   -1.2214   -1.1319 H   0  0  0  0  0  0  0  0  0  0  0  0
    3.7724   -0.7840    0.6229 H   0  0  0  0  0  0  0  0  0  0  0  0
    4.5488    0.2120   -0.6646 H   0  0  0  0  0  0  0  0  0  0  0  0
    1.6725   -2.0485    0.2494 H   0  0  0  0  0  0  0  0  0  0  0  0
   -0.6484   -2.6991    0.7076 H   0  0  0  0  0  0  0  0  0  0  0  0
   -2.4661   -1.0650    0.5426 H   0  0  0  0  0  0  0  0  0  0  0  0
    0.3896    1.9693   -0.6021 H   0  0  0  0  0  0  0  0  0  0  0  0
   -3.8876    0.2205   -0.6444 H   0  0  0  0  0  0  0  0  0  0  0  0
   -4.3757    1.9284   -0.4254 H   0  0  0  0  0  0  0  0  0  0  0  0
  1  2  1  0
  2  3  1  0
  3  4  2  0
  4  5  1  0
  5  6  2  0
  6  7  1  0
  7  8  2  0
  7  9  1  0
  9 10  1  0
  9 11  2  0
  8  3  1  0
  1 12  1  0
  1 13  1  0
  1 14  1  0
  4 15  1  0
  5 16  1  0
  6 17  1  0
  8 18  1  0
 10 19  1  0
 10 20  1  0
M  END
$$$$
