
     RDKit          3D

 30 29  0  0  0  0  0  0  0  0999 V2000
    3.7848   -0.9713    1.4581 N   0  0  0  0  0  0  0  0  0  0  0  0
    3.2703   -0.8305    0.0920 C   0  0  1  0  0  0  0  0  0  0  0  0
    1.7372   -1.0391    0.0101 C   0  0  0  0  0  0  0  0  0  0  0  0
    0.8857    0.0735    0.6618 C   0  0  1  0  0  0  0  0  0  0  0  0
    0.9605    1.2373   -0.0860 F   0  0  0  0  0  0  0  0  0  0  0  0
   -0.5890   -0.3369    0.8204 C   0  0  0  0  0  0  0  0  0  0  0  0
   -1.2983   -0.5789   -0.5205 C   0  0  0  0  0  0  0  0  0  0  0  0
   -2.7325   -0.7762   -0.3081 N   0  0  0  0  0  0  0  0  0  0  0  0
   -3.6420    0.1559   -0.2520 C   0  0  0  0  0  0  0  0  0  0  0  0
   -3.3141    1.6080   -0.4778 C   0  0  0  0  0  0  0  0  0  0  0  0
   -5.0026   -0.2253   -0.0400 N   0  0  0  0  0  0  0  0  0  0  0  0
    3.7029    0.4784   -0.5110 C   0  0  0  0  0  0  0  0  0  0  0  0
    3.8875    1.6004    0.2927 O   0  0  0  0  0  0  0  0  0  0  0  0
    3.8591    0.5712   -1.7581 O   0  0  0  0  0  0  0  0  0  0  0  0
    3.4938   -1.9018    1.8370 H   0  0  0  0  0  0  0  0  0  0  0  0
    3.3818   -0.2366    2.0812 H   0  0  0  0  0  0  0  0  0  0  0  0
    3.7370   -1.6378   -0.5159 H   0  0  0  0  0  0  0  0  0  0  0  0
    1.4917   -2.0155    0.4826 H   0  0  0  0  0  0  0  0  0  0  0  0
    1.4586   -1.1207   -1.0632 H   0  0  0  0  0  0  0  0  0  0  0  0
    1.2690    0.2939    1.6782 H   0  0  0  0  0  0  0  0  0  0  0  0
   -1.1131    0.4680    1.3776 H   0  0  0  0  0  0  0  0  0  0  0  0
   -0.6547   -1.2574    1.4409 H   0  0  0  0  0  0  0  0  0  0  0  0
   -0.8930   -1.5048   -0.9792 H   0  0  0  0  0  0  0  0  0  0  0  0
   -1.1162    0.2530   -1.2340 H   0  0  0  0  0  0  0  0  0  0  0  0
   -4.1915    2.2479   -0.2480 H   0  0  0  0  0  0  0  0  0  0  0  0
   -2.4798    1.9308    0.1767 H   0  0  0  0  0  0  0  0  0  0  0  0
   -3.0343    1.7667   -1.5401 H   0  0  0  0  0  0  0  0  0  0  0  0
   -5.2548   -1.2294    0.0977 H   0  0  0  0  0  0  0  0  0  0  0  0
   -5.7646    0.4882   -0.0203 H   0  0  0  0  0  0  0  0  0  0  0  0
    4.1602    2.4890   -0.1099 H   0  0  0  0  0  0  0  0  0  0  0  0
  1  2  1  0
  2  3  1  0
  3  4  1  0
  4  5  1  0
  4  6  1  0
  6  7  1  0
  7  8  1  0
  8  9  2  0
  9 10  1  0
  9 11  1  0
  2 12  1  0
 12 13  1  0
 12 14  2  0
  1 15  1  0
  1 16  1  0
  2 17  1  6
  3 18  1  0
  3 19  1  0
  4 20  1  1
  6 21  1  0
  6 22  1  0
  7 23  1  0
  7 24  1  0
 10 25  1  0
 10 26  1  0
 10 27  1  0
 11 28  1  0
 11 29  1  0
 13 30  1  0
M  END
$$$$
