
     RDKit          3D

 57 60  0  0  0  0  0  0  0  0999 V2000
   -5.6634    1.5968    4.5758 Cl  0  0  0  0  0  0  0  0  0  0  0  0
   -6.0664    1.2571    2.8978 C   0  0  0  0  0  0  0  0  0  0  0  0
   -7.3946    1.4014    2.4810 C   0  0  0  0  0  0  0  0  0  0  0  0
   -7.7474    1.1478    1.1540 C   0  0  0  0  0  0  0  0  0  0  0  0
   -6.7755    0.7445    0.2366 C   0  0  0  0  0  0  0  0  0  0  0  0
   -5.4430    0.5884    0.6425 C   0  0  0  0  0  0  0  0  0  0  0  0
   -4.4573    0.1696   -0.3098 N   0  0  0  0  0  0  0  0  0  0  0  0
   -4.1013   -1.2494   -0.3868 C   0  0  0  0  0  0  0  0  0  0  0  0
   -3.0116   -1.4765   -1.4355 C   0  0  0  0  0  0  0  0  0  0  0  0
   -1.9934   -0.4168   -1.3105 N   0  0  0  0  0  0  0  0  0  0  0  0
   -0.7880   -0.7620   -2.0962 C   0  0  0  0  0  0  0  0  0  0  0  0
    0.4058    0.1240   -1.7011 C   0  0  0  0  0  0  0  0  0  0  0  0
    1.6928   -0.2292   -2.4674 C   0  0  0  0  0  0  0  0  0  0  0  0
    2.2950   -1.5898   -2.0799 C   0  0  0  0  0  0  0  0  0  0  0  0
    2.4437   -1.7174   -0.6647 O   0  0  0  0  0  0  0  0  0  0  0  0
    3.3963   -1.0498    0.1221 C   0  0  0  0  0  0  0  0  0  0  0  0
    4.4530   -0.3005   -0.4308 C   0  0  0  0  0  0  0  0  0  0  0  0
    5.3702    0.3542    0.4035 C   0  0  0  0  0  0  0  0  0  0  0  0
    5.2391    0.2605    1.8029 C   0  0  0  0  0  0  0  0  0  0  0  0
    6.2841    0.8792    2.7007 C   0  0  0  0  0  0  0  0  0  0  0  0
    6.8591    2.1725    2.1073 C   0  0  0  0  0  0  0  0  0  0  0  0
    7.2333    1.9785    0.6672 C   0  0  0  0  0  0  0  0  0  0  0  0
    8.2030    2.6136    0.1742 O   0  0  0  0  0  0  0  0  0  0  0  0
    6.4375    1.1273   -0.1635 N   0  0  0  0  0  0  0  0  0  0  0  0
    4.2019   -0.5071    2.3494 C   0  0  0  0  0  0  0  0  0  0  0  0
    3.2853   -1.1491    1.5135 C   0  0  0  0  0  0  0  0  0  0  0  0
   -2.5389    0.9124   -1.6959 C   0  0  0  0  0  0  0  0  0  0  0  0
   -4.0378    1.0881   -1.3697 C   0  0  0  0  0  0  0  0  0  0  0  0
   -5.0822    0.8509    1.9777 C   0  0  0  0  0  0  0  0  0  0  0  0
   -3.3987    0.7006    2.4802 Cl  0  0  0  0  0  0  0  0  0  0  0  0
   -8.1551    1.7139    3.1853 H   0  0  0  0  0  0  0  0  0  0  0  0
   -8.7756    1.2634    0.8363 H   0  0  0  0  0  0  0  0  0  0  0  0
   -7.0576    0.5471   -0.7900 H   0  0  0  0  0  0  0  0  0  0  0  0
   -5.0002   -1.8510   -0.6422 H   0  0  0  0  0  0  0  0  0  0  0  0
   -3.7219   -1.5855    0.6023 H   0  0  0  0  0  0  0  0  0  0  0  0
   -2.5687   -2.4808   -1.2527 H   0  0  0  0  0  0  0  0  0  0  0  0
   -3.4549   -1.4749   -2.4576 H   0  0  0  0  0  0  0  0  0  0  0  0
   -0.5051   -1.8164   -1.8909 H   0  0  0  0  0  0  0  0  0  0  0  0
   -0.9877   -0.6763   -3.1884 H   0  0  0  0  0  0  0  0  0  0  0  0
    0.5786    0.0549   -0.6054 H   0  0  0  0  0  0  0  0  0  0  0  0
    0.1672    1.1833   -1.9329 H   0  0  0  0  0  0  0  0  0  0  0  0
    1.4903   -0.2195   -3.5604 H   0  0  0  0  0  0  0  0  0  0  0  0
    2.4421    0.5661   -2.2709 H   0  0  0  0  0  0  0  0  0  0  0  0
    3.2706   -1.7399   -2.5885 H   0  0  0  0  0  0  0  0  0  0  0  0
    1.6319   -2.4030   -2.4391 H   0  0  0  0  0  0  0  0  0  0  0  0
    4.5755   -0.2195   -1.5012 H   0  0  0  0  0  0  0  0  0  0  0  0
    7.1057    0.1444    2.8440 H   0  0  0  0  0  0  0  0  0  0  0  0
    5.8509    1.1079    3.6988 H   0  0  0  0  0  0  0  0  0  0  0  0
    6.0978    2.9795    2.1709 H   0  0  0  0  0  0  0  0  0  0  0  0
    7.7497    2.4832    2.6953 H   0  0  0  0  0  0  0  0  0  0  0  0
    6.6238    1.0941   -1.1914 H   0  0  0  0  0  0  0  0  0  0  0  0
    4.1057   -0.6137    3.4229 H   0  0  0  0  0  0  0  0  0  0  0  0
    2.4839   -1.7322    1.9495 H   0  0  0  0  0  0  0  0  0  0  0  0
   -2.3954    1.1131   -2.7818 H   0  0  0  0  0  0  0  0  0  0  0  0
   -1.9793    1.6914   -1.1352 H   0  0  0  0  0  0  0  0  0  0  0  0
   -4.6419    0.8793   -2.2795 H   0  0  0  0  0  0  0  0  0  0  0  0
   -4.2308    2.1427   -1.0717 H   0  0  0  0  0  0  0  0  0  0  0  0
  1  2  1  0
  2  3  2  0
  3  4  1  0
  4  5  2  0
  5  6  1  0
  6  7  1  0
  7  8  1  0
  8  9  1  0
  9 10  1  0
 10 11  1  0
 11 12  1  0
 12 13  1  0
 13 14  1  0
 14 15  1  0
 15 16  1  0
 16 17  2  0
 17 18  1  0
 18 19  2  0
 19 20  1  0
 20 21  1  0
 21 22  1  0
 22 23  2  0
 22 24  1  0
 19 25  1  0
 25 26  2  0
 10 27  1  0
 27 28  1  0
  6 29  2  0
 29 30  1  0
 29  2  1  0
 28  7  1  0
 26 16  1  0
 24 18  1  0
  3 31  1  0
  4 32  1  0
  5 33  1  0
  8 34  1  0
  8 35  1  0
  9 36  1  0
  9 37  1  0
 11 38  1  0
 11 39  1  0
 12 40  1  0
 12 41  1  0
 13 42  1  0
 13 43  1  0
 14 44  1  0
 14 45  1  0
 17 46  1  0
 20 47  1  0
 20 48  1  0
 21 49  1  0
 21 50  1  0
 24 51  1  0
 25 52  1  0
 26 53  1  0
 27 54  1  0
 27 55  1  0
 28 56  1  0
 28 57  1  0
M  END
$$$$
