
     RDKit          3D

 70 71  0  0  0  0  0  0  0  0999 V2000
   -0.1494   -2.3387   -2.1551 C   0  0  0  0  0  0  0  0  0  0  0  0
   -0.5752   -1.2852   -1.1237 C   0  0  0  0  0  0  0  0  0  0  0  0
   -1.4500   -0.2214   -1.8014 C   0  0  0  0  0  0  0  0  0  0  0  0
   -1.2880   -1.9754    0.0666 C   0  0  0  0  0  0  0  0  0  0  0  0
   -1.6313   -1.0724    1.2797 C   0  0  2  0  0  0  0  0  0  0  0  0
   -2.7783   -0.1983    0.9901 N   0  0  0  0  0  0  0  0  0  0  0  0
   -4.1103   -0.7155    0.8257 C   0  0  0  0  0  0  0  0  0  0  0  0
   -4.3611   -1.9071    1.1566 O   0  0  0  0  0  0  0  0  0  0  0  0
   -5.2022    0.1345    0.2913 C   0  0  0  0  0  0  0  0  0  0  0  0
   -6.5429   -0.1928    0.5575 C   0  0  0  0  0  0  0  0  0  0  0  0
   -7.5817    0.5945    0.0530 C   0  0  0  0  0  0  0  0  0  0  0  0
   -7.3036    1.7236   -0.7367 C   0  0  0  0  0  0  0  0  0  0  0  0
   -5.9643    2.0443   -1.0132 C   0  0  0  0  0  0  0  0  0  0  0  0
   -4.9251    1.2579   -0.5076 C   0  0  0  0  0  0  0  0  0  0  0  0
   -8.3704    2.5367   -1.2589 N   0  0  0  0  0  4  0  0  0  0  0  0
   -8.0938    3.6410   -2.0321 O   0  0  0  0  0  1  0  0  0  0  0  0
   -9.5627    2.2545   -1.0184 O   0  0  0  0  0  0  0  0  0  0  0  0
   -0.4268   -0.2788    1.7551 C   0  0  0  0  0  0  0  0  0  0  0  0
   -0.2132    0.8677    1.2731 O   0  0  0  0  0  0  0  0  0  0  0  0
    0.5166   -0.8292    2.6971 N   0  0  0  0  0  0  0  0  0  0  0  0
    0.3669   -2.1181    3.3567 C   0  0  0  0  0  0  0  0  0  0  0  0
    1.6268   -2.3066    4.1905 C   0  0  0  0  0  0  0  0  0  0  0  0
    2.2448   -0.9191    4.3292 C   0  0  0  0  0  0  0  0  0  0  0  0
    1.6856   -0.0959    3.1674 C   0  0  1  0  0  0  0  0  0  0  0  0
    2.7076    0.0653    2.0695 C   0  0  0  0  0  0  0  0  0  0  0  0
    3.3468    1.1489    1.9875 O   0  0  0  0  0  0  0  0  0  0  0  0
    2.9916   -1.0111    1.1610 N   0  0  0  0  0  0  0  0  0  0  0  0
    4.0419   -0.9371    0.1453 C   0  0  0  0  0  0  0  0  0  0  0  0
    3.4447   -0.7067   -1.2495 C   0  0  0  0  0  0  0  0  0  0  0  0
    2.7771    0.6714   -1.4215 C   0  0  0  0  0  0  0  0  0  0  0  0
    3.7754    1.8306   -1.5115 C   0  0  0  0  0  0  0  0  0  0  0  0
    4.6232    1.6794   -2.6915 N   0  0  0  0  0  0  0  0  0  0  0  0
    5.5638    2.5029   -3.0532 C   0  0  0  0  0  0  0  0  0  0  0  0
    6.3140    2.2211   -4.2343 N   0  0  0  0  0  0  0  0  0  0  0  0
    5.8642    3.6827   -2.2958 N   0  0  0  0  0  0  0  0  0  0  0  0
    0.4142   -1.8603   -2.9846 H   0  0  0  0  0  0  0  0  0  0  0  0
    0.5168   -3.0926   -1.6836 H   0  0  0  0  0  0  0  0  0  0  0  0
   -1.0381   -2.8569   -2.5755 H   0  0  0  0  0  0  0  0  0  0  0  0
    0.3505   -0.7984   -0.7578 H   0  0  0  0  0  0  0  0  0  0  0  0
   -0.9754    0.1290   -2.7428 H   0  0  0  0  0  0  0  0  0  0  0  0
   -2.4557   -0.6298   -2.0391 H   0  0  0  0  0  0  0  0  0  0  0  0
   -1.5558    0.6666   -1.1482 H   0  0  0  0  0  0  0  0  0  0  0  0
   -0.6283   -2.7901    0.4353 H   0  0  0  0  0  0  0  0  0  0  0  0
   -2.2119   -2.4736   -0.2986 H   0  0  0  0  0  0  0  0  0  0  0  0
   -1.9397   -1.7411    2.1105 H   0  0  0  0  0  0  0  0  0  0  0  0
   -2.6534    0.8384    1.0000 H   0  0  0  0  0  0  0  0  0  0  0  0
   -6.7897   -1.0542    1.1658 H   0  0  0  0  0  0  0  0  0  0  0  0
   -8.6033    0.3190    0.2813 H   0  0  0  0  0  0  0  0  0  0  0  0
   -5.7182    2.9014   -1.6265 H   0  0  0  0  0  0  0  0  0  0  0  0
   -3.9090    1.5228   -0.7650 H   0  0  0  0  0  0  0  0  0  0  0  0
   -0.5281   -2.0995    4.0155 H   0  0  0  0  0  0  0  0  0  0  0  0
    0.2762   -2.9349    2.6105 H   0  0  0  0  0  0  0  0  0  0  0  0
    1.3945   -2.7483    5.1838 H   0  0  0  0  0  0  0  0  0  0  0  0
    2.3351   -2.9735    3.6513 H   0  0  0  0  0  0  0  0  0  0  0  0
    3.3564   -0.9714    4.3322 H   0  0  0  0  0  0  0  0  0  0  0  0
    1.9125   -0.4693    5.2909 H   0  0  0  0  0  0  0  0  0  0  0  0
    1.3719    0.9055    3.5395 H   0  0  0  0  0  0  0  0  0  0  0  0
    2.4035   -1.8739    1.1891 H   0  0  0  0  0  0  0  0  0  0  0  0
    4.7906   -0.1572    0.3946 H   0  0  0  0  0  0  0  0  0  0  0  0
    4.5876   -1.9050    0.1364 H   0  0  0  0  0  0  0  0  0  0  0  0
    4.2423   -0.8370   -2.0120 H   0  0  0  0  0  0  0  0  0  0  0  0
    2.6878   -1.4968   -1.4425 H   0  0  0  0  0  0  0  0  0  0  0  0
    2.0748    0.8640   -0.5841 H   0  0  0  0  0  0  0  0  0  0  0  0
    2.1706    0.6556   -2.3535 H   0  0  0  0  0  0  0  0  0  0  0  0
    4.4006    1.8740   -0.5955 H   0  0  0  0  0  0  0  0  0  0  0  0
    3.2027    2.7803   -1.5902 H   0  0  0  0  0  0  0  0  0  0  0  0
    7.0739    2.8651   -4.5469 H   0  0  0  0  0  0  0  0  0  0  0  0
    6.1120    1.3667   -4.8001 H   0  0  0  0  0  0  0  0  0  0  0  0
    5.3447    3.9383   -1.4280 H   0  0  0  0  0  0  0  0  0  0  0  0
    6.6265    4.3225   -2.6109 H   0  0  0  0  0  0  0  0  0  0  0  0
  1  2  1  0
  2  3  1  0
  2  4  1  0
  4  5  1  0
  5  6  1  0
  6  7  1  0
  7  8  2  0
  7  9  1  0
  9 10  2  0
 10 11  1  0
 11 12  2  0
 12 13  1  0
 13 14  2  0
 12 15  1  0
 15 16  1  0
 15 17  2  0
  5 18  1  0
 18 19  2  0
 18 20  1  0
 20 21  1  0
 21 22  1  0
 22 23  1  0
 23 24  1  0
 24 25  1  0
 25 26  2  0
 25 27  1  0
 27 28  1  0
 28 29  1  0
 29 30  1  0
 30 31  1  0
 31 32  1  0
 32 33  2  3
 33 34  1  0
 33 35  1  0
 14  9  1  0
 24 20  1  0
  1 36  1  0
  1 37  1  0
  1 38  1  0
  2 39  1  0
  3 40  1  0
  3 41  1  0
  3 42  1  0
  4 43  1  0
  4 44  1  0
  5 45  1  1
  6 46  1  0
 10 47  1  0
 11 48  1  0
 13 49  1  0
 14 50  1  0
 21 51  1  0
 21 52  1  0
 22 53  1  0
 22 54  1  0
 23 55  1  0
 23 56  1  0
 24 57  1  1
 27 58  1  0
 28 59  1  0
 28 60  1  0
 29 61  1  0
 29 62  1  0
 30 63  1  0
 30 64  1  0
 31 65  1  0
 31 66  1  0
 34 67  1  0
 34 68  1  0
 35 69  1  0
 35 70  1  0
M  CHG  2  15   1  16  -1
M  END
$$$$
