
     RDKit          3D

 26 27  0  0  0  0  0  0  0  0999 V2000
    4.6278    0.7177   -1.1045 N   0  0  0  0  0  0  0  0  0  0  0  0
    3.3005    0.3078   -0.7713 C   0  0  0  0  0  0  0  0  0  0  0  0
    3.0144   -1.0133   -0.6548 N   0  0  0  0  0  0  0  0  0  0  0  0
    1.7662   -1.4468   -0.3383 C   0  0  0  0  0  0  0  0  0  0  0  0
    1.5544   -2.6872   -0.2611 O   0  0  0  0  0  0  0  0  0  0  0  0
    0.7559   -0.5441   -0.1123 N   0  0  0  0  0  0  0  0  0  0  0  0
    1.0109    0.7947   -0.2492 C   0  0  0  0  0  0  0  0  0  0  0  0
    2.2884    1.2471   -0.5727 C   0  0  0  0  0  0  0  0  0  0  0  0
    2.5295    2.5766   -0.6962 F   0  0  0  0  0  0  0  0  0  0  0  0
   -0.6136   -1.0004    0.2027 C   0  0  2  0  0  0  0  0  0  0  0  0
   -1.4554   -1.0589   -1.0592 C   0  0  0  0  0  0  0  0  0  0  0  0
   -3.1675   -0.9461   -0.5235 S   0  0  0  0  0  0  0  0  0  0  0  0
   -2.6045   -0.4282    1.1319 C   0  0  2  0  0  0  0  0  0  0  0  0
   -3.3975    0.7974    1.5841 C   0  0  0  0  0  0  0  0  0  0  0  0
   -3.0500    1.1488    2.8964 O   0  0  0  0  0  0  0  0  0  0  0  0
   -1.2288   -0.1238    1.1145 O   0  0  0  0  0  0  0  0  0  0  0  0
    4.8747    1.7276   -1.2030 H   0  0  0  0  0  0  0  0  0  0  0  0
    5.3747    0.0037   -1.2542 H   0  0  0  0  0  0  0  0  0  0  0  0
    0.2219    1.5249   -0.1130 H   0  0  0  0  0  0  0  0  0  0  0  0
   -0.5844   -2.0131    0.6694 H   0  0  0  0  0  0  0  0  0  0  0  0
   -1.2379   -0.1959   -1.7241 H   0  0  0  0  0  0  0  0  0  0  0  0
   -1.2819   -2.0080   -1.6089 H   0  0  0  0  0  0  0  0  0  0  0  0
   -2.7885   -1.2618    1.8456 H   0  0  0  0  0  0  0  0  0  0  0  0
   -4.4824    0.5603    1.5618 H   0  0  0  0  0  0  0  0  0  0  0  0
   -3.2196    1.6505    0.8892 H   0  0  0  0  0  0  0  0  0  0  0  0
   -2.2073    1.6706    2.8394 H   0  0  0  0  0  0  0  0  0  0  0  0
  1  2  1  0
  2  3  2  0
  3  4  1  0
  4  5  2  0
  4  6  1  0
  6  7  1  0
  7  8  2  0
  8  9  1  0
  6 10  1  0
 10 11  1  0
 11 12  1  0
 12 13  1  0
 13 14  1  0
 14 15  1  0
 13 16  1  0
  8  2  1  0
 16 10  1  0
  1 17  1  0
  1 18  1  0
  7 19  1  0
 10 20  1  1
 11 21  1  0
 11 22  1  0
 13 23  1  1
 14 24  1  0
 14 25  1  0
 15 26  1  0
M  END
$$$$
