
     RDKit          3D

 54 55  0  0  0  0  0  0  0  0999 V2000
    2.6551   -2.1829    0.0538 C   0  0  0  0  0  0  0  0  0  0  0  0
    2.8841   -0.8118   -0.5890 C   0  0  0  0  0  0  0  0  0  0  0  0
    2.6113   -0.8780   -2.1077 C   0  0  0  0  0  0  0  0  0  0  0  0
    2.0860    0.2213    0.1347 N   0  0  0  0  0  0  0  0  0  0  0  0
    0.6732    0.3468   -0.2951 C   0  0  0  0  0  0  0  0  0  0  0  0
   -0.2308    0.8262    0.8669 C   0  0  0  0  0  0  0  0  0  0  0  0
   -1.7349    0.4131    0.7222 C   0  0  0  0  0  0  0  0  0  0  0  0
   -2.5360    1.1111    1.8215 C   0  0  0  0  0  0  0  0  0  0  0  0
   -2.1591    0.9775    3.1949 N   0  0  0  0  0  0  0  0  0  0  0  0
   -3.5911    1.7455    1.5455 O   0  0  0  0  0  0  0  0  0  0  0  0
   -1.9930   -1.0987    0.9129 C   0  0  0  0  0  0  0  0  0  0  0  0
   -1.0059   -2.0043    1.3710 C   0  0  0  0  0  0  0  0  0  0  0  0
   -1.3056   -3.3570    1.5567 C   0  0  0  0  0  0  0  0  0  0  0  0
   -2.5940   -3.8318    1.3156 C   0  0  0  0  0  0  0  0  0  0  0  0
   -3.5913   -2.9530    0.8964 C   0  0  0  0  0  0  0  0  0  0  0  0
   -3.2992   -1.6002    0.7065 C   0  0  0  0  0  0  0  0  0  0  0  0
   -2.1973    0.8702   -0.6737 C   0  0  0  0  0  0  0  0  0  0  0  0
   -2.3916   -0.0496   -1.6646 N   0  0  0  0  0  0  0  0  0  0  0  0
   -2.7223    0.3043   -2.9344 C   0  0  0  0  0  0  0  0  0  0  0  0
   -2.8516    1.6510   -3.2725 C   0  0  0  0  0  0  0  0  0  0  0  0
   -2.6283    2.6220   -2.2974 C   0  0  0  0  0  0  0  0  0  0  0  0
   -2.2893    2.2393   -0.9987 C   0  0  0  0  0  0  0  0  0  0  0  0
    2.7680    1.5243    0.3784 C   0  0  0  0  0  0  0  0  0  0  0  0
    3.3501    2.1704   -0.8893 C   0  0  0  0  0  0  0  0  0  0  0  0
    3.8384    1.3772    1.4674 C   0  0  0  0  0  0  0  0  0  0  0  0
    3.3537   -2.9300   -0.3800 H   0  0  0  0  0  0  0  0  0  0  0  0
    1.6161   -2.5351   -0.1136 H   0  0  0  0  0  0  0  0  0  0  0  0
    2.8413   -2.1232    1.1473 H   0  0  0  0  0  0  0  0  0  0  0  0
    3.9684   -0.6064   -0.4718 H   0  0  0  0  0  0  0  0  0  0  0  0
    1.6231   -1.3311   -2.3308 H   0  0  0  0  0  0  0  0  0  0  0  0
    3.3854   -1.5075   -2.5962 H   0  0  0  0  0  0  0  0  0  0  0  0
    2.6513    0.1263   -2.5709 H   0  0  0  0  0  0  0  0  0  0  0  0
    0.5889    1.0470   -1.1544 H   0  0  0  0  0  0  0  0  0  0  0  0
    0.2930   -0.6358   -0.6392 H   0  0  0  0  0  0  0  0  0  0  0  0
    0.1881    0.4793    1.8337 H   0  0  0  0  0  0  0  0  0  0  0  0
   -0.1776    1.9358    0.9092 H   0  0  0  0  0  0  0  0  0  0  0  0
   -2.7057    1.4680    3.9370 H   0  0  0  0  0  0  0  0  0  0  0  0
   -1.3831    0.3444    3.4874 H   0  0  0  0  0  0  0  0  0  0  0  0
    0.0016   -1.6910    1.5917 H   0  0  0  0  0  0  0  0  0  0  0  0
   -0.5356   -4.0383    1.8955 H   0  0  0  0  0  0  0  0  0  0  0  0
   -2.8220   -4.8795    1.4633 H   0  0  0  0  0  0  0  0  0  0  0  0
   -4.5951   -3.3186    0.7226 H   0  0  0  0  0  0  0  0  0  0  0  0
   -4.0970   -0.9372    0.3951 H   0  0  0  0  0  0  0  0  0  0  0  0
   -2.8767   -0.4610   -3.6830 H   0  0  0  0  0  0  0  0  0  0  0  0
   -3.1112    1.9392   -4.2829 H   0  0  0  0  0  0  0  0  0  0  0  0
   -2.7079    3.6714   -2.5499 H   0  0  0  0  0  0  0  0  0  0  0  0
   -2.0902    3.0031   -0.2580 H   0  0  0  0  0  0  0  0  0  0  0  0
    2.0394    2.2543    0.7890 H   0  0  0  0  0  0  0  0  0  0  0  0
    4.1784    1.5668   -1.3139 H   0  0  0  0  0  0  0  0  0  0  0  0
    2.5578    2.3071   -1.6536 H   0  0  0  0  0  0  0  0  0  0  0  0
    3.7543    3.1757   -0.6441 H   0  0  0  0  0  0  0  0  0  0  0  0
    3.4070    0.8634    2.3528 H   0  0  0  0  0  0  0  0  0  0  0  0
    4.7147    0.7996    1.1089 H   0  0  0  0  0  0  0  0  0  0  0  0
    4.1945    2.3801    1.7869 H   0  0  0  0  0  0  0  0  0  0  0  0
  1  2  1  0
  2  3  1  0
  2  4  1  0
  4  5  1  0
  5  6  1  0
  6  7  1  0
  7  8  1  0
  8  9  1  0
  8 10  2  0
  7 11  1  0
 11 12  2  0
 12 13  1  0
 13 14  2  0
 14 15  1  0
 15 16  2  0
  7 17  1  0
 17 18  2  0
 18 19  1  0
 19 20  2  0
 20 21  1  0
 21 22  2  0
  4 23  1  0
 23 24  1  0
 23 25  1  0
 16 11  1  0
 22 17  1  0
  1 26  1  0
  1 27  1  0
  1 28  1  0
  2 29  1  0
  3 30  1  0
  3 31  1  0
  3 32  1  0
  5 33  1  0
  5 34  1  0
  6 35  1  0
  6 36  1  0
  9 37  1  0
  9 38  1  0
 12 39  1  0
 13 40  1  0
 14 41  1  0
 15 42  1  0
 16 43  1  0
 19 44  1  0
 20 45  1  0
 21 46  1  0
 22 47  1  0
 23 48  1  0
 24 49  1  0
 24 50  1  0
 24 51  1  0
 25 52  1  0
 25 53  1  0
 25 54  1  0
M  END
$$$$
