
     RDKit          3D

 37 39  0  0  0  0  0  0  0  0999 V2000
    3.1914   -1.5506   -2.3836 C   0  0  0  0  0  0  0  0  0  0  0  0
    2.6658   -1.7158   -0.9607 C   0  0  0  0  0  0  0  0  0  0  0  0
    1.7469   -0.5527   -0.5721 C   0  0  0  0  0  0  0  0  0  0  0  0
    1.2169   -0.7242    0.8549 C   0  0  0  0  0  0  0  0  0  0  0  0
    0.3193    0.4230    1.2273 C   0  0  0  0  0  0  0  0  0  0  0  0
   -0.9801    0.7039    0.7673 C   0  0  0  0  0  0  0  0  0  0  0  0
   -1.3722    1.9446    1.1589 N   0  0  0  0  0  0  0  0  0  0  0  0
   -0.3396    2.4410    1.8557 C   0  0  0  0  0  0  0  0  0  0  0  0
   -0.2489    3.6781    2.4010 N   0  0  0  0  0  0  0  0  0  0  0  0
    0.9172    4.0263    3.0247 C   0  0  0  0  0  0  0  0  0  0  0  0
    1.9969    3.1109    3.0719 C   0  0  0  0  0  0  0  0  0  0  0  0
    1.8727    1.8760    2.4982 N   0  0  0  0  0  0  0  0  0  0  0  0
    0.6943    1.5598    1.9086 C   0  0  0  0  0  0  0  0  0  0  0  0
   -1.8057   -0.1586   -0.1005 C   0  0  0  0  0  0  0  0  0  0  0  0
   -2.0194   -1.5088    0.2200 C   0  0  0  0  0  0  0  0  0  0  0  0
   -2.8043   -2.3147   -0.6104 C   0  0  0  0  0  0  0  0  0  0  0  0
   -3.3920   -1.7786   -1.7605 C   0  0  0  0  0  0  0  0  0  0  0  0
   -4.1697   -2.5937   -2.5799 O   0  0  0  0  0  0  0  0  0  0  0  0
   -3.1970   -0.4270   -2.0749 C   0  0  0  0  0  0  0  0  0  0  0  0
   -2.4131    0.3806   -1.2453 C   0  0  0  0  0  0  0  0  0  0  0  0
    2.3479   -1.5277   -3.1062 H   0  0  0  0  0  0  0  0  0  0  0  0
    3.7763   -0.6104   -2.4721 H   0  0  0  0  0  0  0  0  0  0  0  0
    3.8529   -2.4056   -2.6371 H   0  0  0  0  0  0  0  0  0  0  0  0
    2.1060   -2.6742   -0.8935 H   0  0  0  0  0  0  0  0  0  0  0  0
    3.5290   -1.7618   -0.2613 H   0  0  0  0  0  0  0  0  0  0  0  0
    0.8912   -0.5096   -1.2817 H   0  0  0  0  0  0  0  0  0  0  0  0
    2.3116    0.4036   -0.6413 H   0  0  0  0  0  0  0  0  0  0  0  0
    0.6668   -1.6821    0.9413 H   0  0  0  0  0  0  0  0  0  0  0  0
    2.0703   -0.7679    1.5662 H   0  0  0  0  0  0  0  0  0  0  0  0
   -2.2748    2.4242    0.9436 H   0  0  0  0  0  0  0  0  0  0  0  0
    1.0164    5.0057    3.4730 H   0  0  0  0  0  0  0  0  0  0  0  0
    2.9235    3.3891    3.5557 H   0  0  0  0  0  0  0  0  0  0  0  0
   -1.6049   -1.9333    1.1248 H   0  0  0  0  0  0  0  0  0  0  0  0
   -2.9629   -3.3548   -0.3553 H   0  0  0  0  0  0  0  0  0  0  0  0
   -4.6099   -2.2347   -3.4191 H   0  0  0  0  0  0  0  0  0  0  0  0
   -3.6515   -0.0020   -2.9607 H   0  0  0  0  0  0  0  0  0  0  0  0
   -2.2673    1.4221   -1.5049 H   0  0  0  0  0  0  0  0  0  0  0  0
  1  2  1  0
  2  3  1  0
  3  4  1  0
  4  5  1  0
  5  6  2  0
  6  7  1  0
  7  8  1  0
  8  9  2  0
  9 10  1  0
 10 11  2  0
 11 12  1  0
 12 13  2  0
  6 14  1  0
 14 15  2  0
 15 16  1  0
 16 17  2  0
 17 18  1  0
 17 19  1  0
 19 20  2  0
 13  5  1  0
 20 14  1  0
 13  8  1  0
  1 21  1  0
  1 22  1  0
  1 23  1  0
  2 24  1  0
  2 25  1  0
  3 26  1  0
  3 27  1  0
  4 28  1  0
  4 29  1  0
  7 30  1  0
 10 31  1  0
 11 32  1  0
 15 33  1  0
 16 34  1  0
 18 35  1  0
 19 36  1  0
 20 37  1  0
M  END
$$$$
