
     RDKit          3D

 54 56  0  0  0  0  0  0  0  0999 V2000
   -1.6954   -1.4063    0.3051 C   0  0  1  0  0  0  0  0  0  0  0  0
   -1.2836   -0.8998   -1.1021 C   0  0  0  0  0  0  0  0  0  0  0  0
   -1.7692    0.5481   -1.1323 C   0  0  0  0  0  0  0  0  0  0  0  0
   -2.3206    0.7833    0.2845 C   0  0  2  0  0  0  0  0  0  0  0  0
   -1.1459    1.2981    1.1764 C   0  0  0  0  0  0  0  0  0  0  0  0
    0.0016    0.2557    1.3711 C   0  0  1  0  0  0  0  0  0  0  0  0
   -0.4486   -1.2304    1.2277 C   0  0  0  0  0  0  0  0  0  0  0  0
    1.0505    0.5109    0.4345 O   0  0  0  0  0  0  0  0  0  0  0  0
    1.9521    1.5766    0.5472 C   0  0  0  0  0  0  0  0  0  0  0  0
    1.9270    2.3295    1.5593 O   0  0  0  0  0  0  0  0  0  0  0  0
    2.9938    1.8041   -0.5180 C   0  0  0  0  0  0  0  0  0  0  0  0
    2.4417    1.5619   -1.9336 C   0  0  0  0  0  0  0  0  0  0  0  0
    2.1327    0.2096   -2.1340 O   0  0  0  0  0  0  0  0  0  0  0  0
    4.2470    0.9876   -0.2584 C   0  0  0  0  0  0  0  0  0  0  0  0
    5.5108    1.5985   -0.3594 C   0  0  0  0  0  0  0  0  0  0  0  0
    6.6768    0.8562   -0.1486 C   0  0  0  0  0  0  0  0  0  0  0  0
    6.5963   -0.5043    0.1557 C   0  0  0  0  0  0  0  0  0  0  0  0
    5.3496   -1.1268    0.2457 C   0  0  0  0  0  0  0  0  0  0  0  0
    4.1803   -0.3898    0.0358 C   0  0  0  0  0  0  0  0  0  0  0  0
   -2.8377   -0.5434    0.7443 N   0  0  0  0  0  4  0  0  0  0  0  0
   -3.0563   -0.6041    2.2303 C   0  0  0  0  0  0  0  0  0  0  0  0
   -4.1918   -0.9416    0.1321 C   0  0  0  0  0  0  0  0  0  0  0  0
   -5.2143    0.2181    0.0492 C   0  0  0  0  0  0  0  0  0  0  0  0
   -4.2081   -1.6900   -1.2225 C   0  0  0  0  0  0  0  0  0  0  0  0
   -1.9682   -2.4836    0.2952 H   0  0  0  0  0  0  0  0  0  0  0  0
   -1.7269   -1.4975   -1.9204 H   0  0  0  0  0  0  0  0  0  0  0  0
   -0.1879   -0.9506   -1.2774 H   0  0  0  0  0  0  0  0  0  0  0  0
   -0.9435    1.2443   -1.3985 H   0  0  0  0  0  0  0  0  0  0  0  0
   -2.5700    0.6889   -1.8855 H   0  0  0  0  0  0  0  0  0  0  0  0
   -3.0932    1.5780    0.2793 H   0  0  0  0  0  0  0  0  0  0  0  0
   -0.7372    2.2306    0.7298 H   0  0  0  0  0  0  0  0  0  0  0  0
   -1.5336    1.6325    2.1613 H   0  0  0  0  0  0  0  0  0  0  0  0
    0.4159    0.3746    2.3974 H   0  0  0  0  0  0  0  0  0  0  0  0
    0.3945   -1.8344    0.8241 H   0  0  0  0  0  0  0  0  0  0  0  0
   -0.6384   -1.6802    2.2248 H   0  0  0  0  0  0  0  0  0  0  0  0
    3.2580    2.8851   -0.4729 H   0  0  0  0  0  0  0  0  0  0  0  0
    1.5295    2.1830   -2.0841 H   0  0  0  0  0  0  0  0  0  0  0  0
    3.2034    1.8811   -2.6802 H   0  0  0  0  0  0  0  0  0  0  0  0
    1.7525    0.1460   -3.0484 H   0  0  0  0  0  0  0  0  0  0  0  0
    5.5956    2.6504   -0.6025 H   0  0  0  0  0  0  0  0  0  0  0  0
    7.6439    1.3362   -0.2244 H   0  0  0  0  0  0  0  0  0  0  0  0
    7.5002   -1.0771    0.3174 H   0  0  0  0  0  0  0  0  0  0  0  0
    5.2887   -2.1828    0.4750 H   0  0  0  0  0  0  0  0  0  0  0  0
    3.2271   -0.8972    0.1015 H   0  0  0  0  0  0  0  0  0  0  0  0
   -3.2907   -1.6444    2.5486 H   0  0  0  0  0  0  0  0  0  0  0  0
   -2.2004   -0.2980    2.8547 H   0  0  0  0  0  0  0  0  0  0  0  0
   -3.8911    0.0541    2.5460 H   0  0  0  0  0  0  0  0  0  0  0  0
   -4.6778   -1.6927    0.7997 H   0  0  0  0  0  0  0  0  0  0  0  0
   -5.2549    0.8098    0.9845 H   0  0  0  0  0  0  0  0  0  0  0  0
   -4.9783    0.8956   -0.7987 H   0  0  0  0  0  0  0  0  0  0  0  0
   -6.2343   -0.1879   -0.1243 H   0  0  0  0  0  0  0  0  0  0  0  0
   -3.5978   -2.6139   -1.2041 H   0  0  0  0  0  0  0  0  0  0  0  0
   -5.2440   -2.0330   -1.4361 H   0  0  0  0  0  0  0  0  0  0  0  0
   -3.9300   -1.0386   -2.0715 H   0  0  0  0  0  0  0  0  0  0  0  0
  1  2  1  0
  2  3  1  0
  3  4  1  0
  4  5  1  0
  5  6  1  0
  6  7  1  0
  6  8  1  0
  8  9  1  0
  9 10  2  0
  9 11  1  0
 11 12  1  0
 12 13  1  0
 11 14  1  0
 14 15  2  0
 15 16  1  0
 16 17  2  0
 17 18  1  0
 18 19  2  0
  4 20  1  0
 20 21  1  0
 20 22  1  0
 22 23  1  0
 22 24  1  0
  7  1  1  0
 19 14  1  0
 20  1  1  0
  1 25  1  6
  2 26  1  0
  2 27  1  0
  3 28  1  0
  3 29  1  0
  4 30  1  6
  5 31  1  0
  5 32  1  0
  6 33  1  1
  7 34  1  0
  7 35  1  0
 11 36  1  0
 12 37  1  0
 12 38  1  0
 13 39  1  0
 15 40  1  0
 16 41  1  0
 17 42  1  0
 18 43  1  0
 19 44  1  0
 21 45  1  0
 21 46  1  0
 21 47  1  0
 22 48  1  0
 23 49  1  0
 23 50  1  0
 23 51  1  0
 24 52  1  0
 24 53  1  0
 24 54  1  0
M  CHG  1  20   1
M  END
$$$$
