
     RDKit          3D

 24 23  0  0  0  0  0  0  0  0999 V2000
    2.5871    0.3450    0.9474 N   0  0  0  0  0  0  0  0  0  0  0  0
    2.1327   -0.1852   -0.3345 C   0  0  0  0  0  0  0  0  0  0  0  0
    0.7718   -0.8914   -0.2031 C   0  0  0  0  0  0  0  0  0  0  0  0
   -0.4045   -0.0048    0.2966 C   0  0  0  0  0  0  0  0  0  0  0  0
   -0.1207    0.5466    1.5575 O   0  0  0  0  0  0  0  0  0  0  0  0
   -1.9178   -1.0391    0.4216 P   0  0  0  0  0  5  0  0  0  0  0  0
   -1.6004   -2.4241    1.3437 O   0  0  0  0  0  0  0  0  0  0  0  0
   -2.4265   -1.5100   -1.1227 O   0  0  0  0  0  0  0  0  0  0  0  0
   -3.0236   -0.2476    1.0834 O   0  0  0  0  0  0  0  0  0  0  0  0
   -0.7414    1.3746   -0.8640 P   0  0  0  0  0  5  0  0  0  0  0  0
   -2.2323    2.0849   -0.4906 O   0  0  0  0  0  0  0  0  0  0  0  0
    0.4671    2.5518   -0.7218 O   0  0  0  0  0  0  0  0  0  0  0  0
   -0.7772    0.8570   -2.2849 O   0  0  0  0  0  0  0  0  0  0  0  0
    2.8121   -0.4621    1.5736 H   0  0  0  0  0  0  0  0  0  0  0  0
    3.4857    0.8533    0.7815 H   0  0  0  0  0  0  0  0  0  0  0  0
    2.8787   -0.9186   -0.7147 H   0  0  0  0  0  0  0  0  0  0  0  0
    2.0757    0.6316   -1.0826 H   0  0  0  0  0  0  0  0  0  0  0  0
    0.8992   -1.7549    0.4861 H   0  0  0  0  0  0  0  0  0  0  0  0
    0.5128   -1.3157   -1.1973 H   0  0  0  0  0  0  0  0  0  0  0  0
    0.0592   -0.2030    2.1829 H   0  0  0  0  0  0  0  0  0  0  0  0
   -1.5132   -2.0993    2.2751 H   0  0  0  0  0  0  0  0  0  0  0  0
   -1.8082   -2.2380   -1.3835 H   0  0  0  0  0  0  0  0  0  0  0  0
   -2.3452    2.8062   -1.1598 H   0  0  0  0  0  0  0  0  0  0  0  0
    0.2291    3.2428   -1.3900 H   0  0  0  0  0  0  0  0  0  0  0  0
  1  2  1  0
  2  3  1  0
  3  4  1  0
  4  5  1  0
  4  6  1  0
  6  7  1  0
  6  8  1  0
  6  9  2  0
  4 10  1  0
 10 11  1  0
 10 12  1  0
 10 13  2  0
  1 14  1  0
  1 15  1  0
  2 16  1  0
  2 17  1  0
  3 18  1  0
  3 19  1  0
  5 20  1  0
  7 21  1  0
  8 22  1  0
 11 23  1  0
 12 24  1  0
M  END
$$$$
