
     RDKit          3D

 21 21  0  0  0  0  0  0  0  0999 V2000
    4.4167    0.6134   -0.3166 O   0  0  0  0  0  0  0  0  0  0  0  0
    3.8567   -0.6196    0.0085 C   0  0  0  0  0  0  0  0  0  0  0  0
    4.6066   -1.5808    0.3253 O   0  0  0  0  0  0  0  0  0  0  0  0
    2.3987   -0.8172   -0.0145 C   0  0  0  0  0  0  0  0  0  0  0  0
    1.5541    0.1766   -0.3219 C   0  0  0  0  0  0  0  0  0  0  0  0
    0.0777    0.0263   -0.3462 C   0  0  0  0  0  0  0  0  0  0  0  0
   -0.7172    1.1791   -0.2469 C   0  0  0  0  0  0  0  0  0  0  0  0
   -2.1153    1.1002   -0.2736 C   0  0  0  0  0  0  0  0  0  0  0  0
   -2.8378    2.2898   -0.1603 O   0  0  0  0  0  0  0  0  0  0  0  0
   -2.7387   -0.1615   -0.4132 C   0  0  0  0  0  0  0  0  0  0  0  0
   -4.1258   -0.3194   -0.4452 O   0  0  0  0  0  0  0  0  0  0  0  0
   -1.9471   -1.3085   -0.5288 C   0  0  0  0  0  0  0  0  0  0  0  0
   -0.5538   -1.2213   -0.5010 C   0  0  0  0  0  0  0  0  0  0  0  0
    5.4205    0.7488   -0.3012 H   0  0  0  0  0  0  0  0  0  0  0  0
    2.0263   -1.7962    0.2539 H   0  0  0  0  0  0  0  0  0  0  0  0
    1.9568    1.1620   -0.5262 H   0  0  0  0  0  0  0  0  0  0  0  0
   -0.2497    2.1510   -0.1391 H   0  0  0  0  0  0  0  0  0  0  0  0
   -3.8461    2.3414   -0.1718 H   0  0  0  0  0  0  0  0  0  0  0  0
   -4.7829    0.4433   -0.3670 H   0  0  0  0  0  0  0  0  0  0  0  0
   -2.4169   -2.2769   -0.6480 H   0  0  0  0  0  0  0  0  0  0  0  0
    0.0172   -2.1307   -0.6250 H   0  0  0  0  0  0  0  0  0  0  0  0
  1  2  1  0
  2  3  2  0
  2  4  1  0
  4  5  2  0
  5  6  1  0
  6  7  2  0
  7  8  1  0
  8  9  1  0
  8 10  2  0
 10 11  1  0
 10 12  1  0
 12 13  2  0
 13  6  1  0
  1 14  1  0
  4 15  1  0
  5 16  1  0
  7 17  1  0
  9 18  1  0
 11 19  1  0
 12 20  1  0
 13 21  1  0
M  END
$$$$
