
     RDKit          3D

 29 29  0  0  0  0  0  0  0  0999 V2000
   -2.9349    2.5023    0.0436 Cl  0  0  0  0  0  0  0  0  0  0  0  0
   -3.1354    1.1548   -1.1076 C   0  0  0  0  0  0  0  0  0  0  0  0
   -1.7845    0.5108   -1.4267 C   0  0  0  0  0  0  0  0  0  0  0  0
   -1.1732   -0.0548   -0.2064 N   0  0  0  0  0  0  0  0  0  0  0  0
   -1.7054   -1.3998    0.1077 C   0  0  0  0  0  0  0  0  0  0  0  0
   -1.9098   -1.5325    1.6145 C   0  0  0  0  0  0  0  0  0  0  0  0
   -2.5520   -3.1466    2.0098 Cl  0  0  0  0  0  0  0  0  0  0  0  0
    0.5884   -0.1207   -0.3923 P   0  0  0  0  0  5  0  0  0  0  0  0
    0.9440   -0.7520   -1.7217 O   0  0  0  0  0  0  0  0  0  0  0  0
    1.2509    1.5066   -0.2999 N   0  0  0  0  0  0  0  0  0  0  0  0
    2.7089    1.4243   -0.1890 C   0  0  0  0  0  0  0  0  0  0  0  0
    3.1318    0.5620    1.0074 C   0  0  0  0  0  0  0  0  0  0  0  0
    2.6754   -0.8936    0.8173 C   0  0  0  0  0  0  0  0  0  0  0  0
    1.2726   -1.0267    0.8798 O   0  0  0  0  0  0  0  0  0  0  0  0
   -3.5818    1.5536   -2.0428 H   0  0  0  0  0  0  0  0  0  0  0  0
   -3.8392    0.4132   -0.6773 H   0  0  0  0  0  0  0  0  0  0  0  0
   -1.9125   -0.2706   -2.2099 H   0  0  0  0  0  0  0  0  0  0  0  0
   -1.1445    1.3072   -1.8653 H   0  0  0  0  0  0  0  0  0  0  0  0
   -2.6924   -1.5743   -0.3753 H   0  0  0  0  0  0  0  0  0  0  0  0
   -1.0364   -2.2116   -0.2576 H   0  0  0  0  0  0  0  0  0  0  0  0
   -0.9506   -1.3907    2.1528 H   0  0  0  0  0  0  0  0  0  0  0  0
   -2.6319   -0.7641    1.9639 H   0  0  0  0  0  0  0  0  0  0  0  0
    1.0259    1.9917   -1.1980 H   0  0  0  0  0  0  0  0  0  0  0  0
    3.1493    1.0184   -1.1284 H   0  0  0  0  0  0  0  0  0  0  0  0
    3.1133    2.4493   -0.0464 H   0  0  0  0  0  0  0  0  0  0  0  0
    4.2395    0.5859    1.0954 H   0  0  0  0  0  0  0  0  0  0  0  0
    2.6984    0.9744    1.9446 H   0  0  0  0  0  0  0  0  0  0  0  0
    3.0756   -1.3172   -0.1319 H   0  0  0  0  0  0  0  0  0  0  0  0
    3.1107   -1.4994    1.6396 H   0  0  0  0  0  0  0  0  0  0  0  0
  1  2  1  0
  2  3  1  0
  3  4  1  0
  4  5  1  0
  5  6  1  0
  6  7  1  0
  4  8  1  0
  8  9  2  0
  8 10  1  0
 10 11  1  0
 11 12  1  0
 12 13  1  0
 13 14  1  0
 14  8  1  0
  2 15  1  0
  2 16  1  0
  3 17  1  0
  3 18  1  0
  5 19  1  0
  5 20  1  0
  6 21  1  0
  6 22  1  0
 10 23  1  0
 11 24  1  0
 11 25  1  0
 12 26  1  0
 12 27  1  0
 13 28  1  0
 13 29  1  0
M  END
$$$$
