
     RDKit          3D

 69 72  0  0  0  0  0  0  0  0999 V2000
    3.5785   -1.7015   -0.6060 C   0  0  2  0  0  0  0  0  0  0  0  0
    4.3215   -2.6676    0.3353 C   0  0  0  0  0  0  0  0  0  0  0  0
    4.5514   -1.0101   -1.6047 C   0  0  0  0  0  0  0  0  0  0  0  0
    5.8682   -0.5033   -0.9844 C   0  0  0  0  0  0  0  0  0  0  0  0
    6.5842    0.3984   -1.9392 C   0  0  0  0  0  0  0  0  0  0  0  0
    6.3158    1.7635   -1.9348 O   0  0  0  0  0  0  0  0  0  0  0  0
    7.3970   -0.0818   -2.7739 O   0  0  0  0  0  0  0  0  0  0  0  0
    2.6061   -0.7595    0.1981 C   0  0  1  0  0  0  0  0  0  0  0  0
    3.0782    0.6838    0.5123 C   0  0  0  0  0  0  0  0  0  0  0  0
    1.8006    1.5324    0.6695 C   0  0  0  0  0  0  0  0  0  0  0  0
    0.6525    0.5321    0.5491 C   0  0  1  0  0  0  0  0  0  0  0  0
   -0.7522    1.0459    0.1559 C   0  0  2  0  0  0  0  0  0  0  0  0
   -1.2281    2.1674    1.1058 C   0  0  2  0  0  0  0  0  0  0  0  0
   -1.2472    1.7356    2.4447 O   0  0  0  0  0  0  0  0  0  0  0  0
   -2.6224    2.6489    0.7003 C   0  0  0  0  0  0  0  0  0  0  0  0
   -3.6827    1.5255    0.6304 C   0  0  2  0  0  0  0  0  0  0  0  0
   -4.2251    1.1261    2.0193 C   0  0  0  0  0  0  0  0  0  0  0  0
   -5.5228    0.2950    1.8911 C   0  0  2  0  0  0  0  0  0  0  0  0
   -5.6214   -0.5699    2.9936 O   0  0  0  0  0  0  0  0  0  0  0  0
   -5.5852   -0.5139    0.5722 C   0  0  0  0  0  0  0  0  0  0  0  0
   -4.1883   -0.9503    0.1127 C   0  0  0  0  0  0  0  0  0  0  0  0
   -3.2302    0.2600   -0.1973 C   0  0  1  0  0  0  0  0  0  0  0  0
   -3.3563    0.6066   -1.7075 C   0  0  0  0  0  0  0  0  0  0  0  0
   -1.7517   -0.1566    0.1821 C   0  0  1  0  0  0  0  0  0  0  0  0
   -1.2259   -1.3873   -0.6317 C   0  0  0  0  0  0  0  0  0  0  0  0
    0.2339   -1.7922   -0.2897 C   0  0  2  0  0  0  0  0  0  0  0  0
    0.2785   -2.3512    1.0003 O   0  0  0  0  0  0  0  0  0  0  0  0
    1.1819   -0.5624   -0.3932 C   0  0  2  0  0  0  0  0  0  0  0  0
    1.2791   -0.0889   -1.8818 C   0  0  0  0  0  0  0  0  0  0  0  0
    2.9391   -2.3662   -1.2255 H   0  0  0  0  0  0  0  0  0  0  0  0
    4.9108   -2.1065    1.0913 H   0  0  0  0  0  0  0  0  0  0  0  0
    3.5934   -3.3156    0.8692 H   0  0  0  0  0  0  0  0  0  0  0  0
    5.0013   -3.3285   -0.2440 H   0  0  0  0  0  0  0  0  0  0  0  0
    4.8186   -1.7475   -2.3942 H   0  0  0  0  0  0  0  0  0  0  0  0
    4.0346   -0.1836   -2.1319 H   0  0  0  0  0  0  0  0  0  0  0  0
    6.5267   -1.3655   -0.7428 H   0  0  0  0  0  0  0  0  0  0  0  0
    5.6863    0.0472   -0.0399 H   0  0  0  0  0  0  0  0  0  0  0  0
    6.7785    2.3859   -2.5864 H   0  0  0  0  0  0  0  0  0  0  0  0
    2.4658   -1.2330    1.1978 H   0  0  0  0  0  0  0  0  0  0  0  0
    3.6777    1.1283   -0.3052 H   0  0  0  0  0  0  0  0  0  0  0  0
    3.6816    0.7003    1.4462 H   0  0  0  0  0  0  0  0  0  0  0  0
    1.7859    2.0442    1.6560 H   0  0  0  0  0  0  0  0  0  0  0  0
    1.7360    2.2983   -0.1343 H   0  0  0  0  0  0  0  0  0  0  0  0
    0.5457    0.0908    1.5697 H   0  0  0  0  0  0  0  0  0  0  0  0
   -0.7028    1.4826   -0.8608 H   0  0  0  0  0  0  0  0  0  0  0  0
   -0.5443    3.0433    0.9966 H   0  0  0  0  0  0  0  0  0  0  0  0
   -0.3901    2.0141    2.8599 H   0  0  0  0  0  0  0  0  0  0  0  0
   -2.5494    3.1336   -0.2982 H   0  0  0  0  0  0  0  0  0  0  0  0
   -2.9550    3.4435    1.4036 H   0  0  0  0  0  0  0  0  0  0  0  0
   -4.5483    1.9998    0.1122 H   0  0  0  0  0  0  0  0  0  0  0  0
   -4.4400    2.0319    2.6276 H   0  0  0  0  0  0  0  0  0  0  0  0
   -3.4600    0.5344    2.5647 H   0  0  0  0  0  0  0  0  0  0  0  0
   -6.3850    1.0033    1.8993 H   0  0  0  0  0  0  0  0  0  0  0  0
   -6.5755   -0.8346    3.0684 H   0  0  0  0  0  0  0  0  0  0  0  0
   -6.2293   -1.4106    0.7030 H   0  0  0  0  0  0  0  0  0  0  0  0
   -6.0527    0.1043   -0.2250 H   0  0  0  0  0  0  0  0  0  0  0  0
   -3.7720   -1.5882    0.9236 H   0  0  0  0  0  0  0  0  0  0  0  0
   -4.2932   -1.6146   -0.7731 H   0  0  0  0  0  0  0  0  0  0  0  0
   -2.6556    1.4113   -2.0055 H   0  0  0  0  0  0  0  0  0  0  0  0
   -3.1734   -0.2741   -2.3548 H   0  0  0  0  0  0  0  0  0  0  0  0
   -4.3851    0.9532   -1.9429 H   0  0  0  0  0  0  0  0  0  0  0  0
   -1.7801   -0.5040    1.2394 H   0  0  0  0  0  0  0  0  0  0  0  0
   -1.8769   -2.2664   -0.4413 H   0  0  0  0  0  0  0  0  0  0  0  0
   -1.2897   -1.1986   -1.7186 H   0  0  0  0  0  0  0  0  0  0  0  0
    0.5658   -2.5595   -1.0275 H   0  0  0  0  0  0  0  0  0  0  0  0
   -0.0938   -3.2690    0.9311 H   0  0  0  0  0  0  0  0  0  0  0  0
    0.3019    0.1867   -2.3175 H   0  0  0  0  0  0  0  0  0  0  0  0
    1.9294    0.8014   -1.9941 H   0  0  0  0  0  0  0  0  0  0  0  0
    1.6850   -0.8969   -2.5241 H   0  0  0  0  0  0  0  0  0  0  0  0
  1  2  1  0
  1  3  1  0
  3  4  1  0
  4  5  1  0
  5  6  1  0
  5  7  2  0
  1  8  1  0
  8  9  1  0
  9 10  1  0
 10 11  1  0
 11 12  1  0
 12 13  1  0
 13 14  1  0
 13 15  1  0
 15 16  1  0
 16 17  1  0
 17 18  1  0
 18 19  1  0
 18 20  1  0
 20 21  1  0
 21 22  1  0
 22 23  1  6
 22 24  1  0
 24 25  1  0
 25 26  1  0
 26 27  1  0
 26 28  1  0
 28 29  1  6
 28  8  1  0
 28 11  1  0
 24 12  1  0
 22 16  1  0
  1 30  1  6
  2 31  1  0
  2 32  1  0
  2 33  1  0
  3 34  1  0
  3 35  1  0
  4 36  1  0
  4 37  1  0
  6 38  1  0
  8 39  1  1
  9 40  1  0
  9 41  1  0
 10 42  1  0
 10 43  1  0
 11 44  1  1
 12 45  1  6
 13 46  1  1
 14 47  1  0
 15 48  1  0
 15 49  1  0
 16 50  1  6
 17 51  1  0
 17 52  1  0
 18 53  1  6
 19 54  1  0
 20 55  1  0
 20 56  1  0
 21 57  1  0
 21 58  1  0
 23 59  1  0
 23 60  1  0
 23 61  1  0
 24 62  1  1
 25 63  1  0
 25 64  1  0
 26 65  1  6
 27 66  1  0
 29 67  1  0
 29 68  1  0
 29 69  1  0
M  END
$$$$
