
     RDKit          3D

 52 55  0  0  0  0  0  0  0  0999 V2000
   -0.3520   -0.6638    1.4301 C   0  0  2  0  0  0  0  0  0  0  0  0
   -0.9902   -1.7376    2.3005 C   0  0  0  0  0  0  0  0  0  0  0  0
   -1.6637   -0.9566    3.4420 C   0  0  0  0  0  0  0  0  0  0  0  0
   -1.5996    0.5577    3.0602 C   0  0  1  0  0  0  0  0  0  0  0  0
   -2.7760    1.2479    3.4134 O   0  0  0  0  0  0  0  0  0  0  0  0
   -0.4970    1.1902    3.8192 C   0  0  0  0  0  0  0  0  0  0  0  0
    0.4000    1.7036    4.4406 C   0  0  0  0  0  0  0  0  0  0  0  0
   -1.3174    0.5491    1.5127 C   0  0  2  0  0  0  0  0  0  0  0  0
   -2.6570    0.2942    0.7058 C   0  0  0  0  0  0  0  0  0  0  0  0
   -3.5601    1.5228    0.4995 C   0  0  0  0  0  0  0  0  0  0  0  0
   -0.5556    1.7731    0.9205 C   0  0  0  0  0  0  0  0  0  0  0  0
   -0.1064    1.4353   -0.4948 C   0  0  0  0  0  0  0  0  0  0  0  0
   -0.6136    2.1338   -1.5289 C   0  0  0  0  0  0  0  0  0  0  0  0
    0.7994    0.1980   -0.6458 C   0  0  2  0  0  0  0  0  0  0  0  0
    1.3389   -0.0943   -2.0832 C   0  0  1  0  0  0  0  0  0  0  0  0
    2.3420    1.0087   -2.5156 C   0  0  0  0  0  0  0  0  0  0  0  0
    2.8739    0.7421   -3.9243 C   0  0  0  0  0  0  0  0  0  0  0  0
    3.4383   -0.6427   -4.0107 C   0  0  0  0  0  0  0  0  0  0  0  0
    4.3084   -0.9110   -4.8808 O   0  0  0  0  0  0  0  0  0  0  0  0
    2.9419   -1.7067   -3.1231 C   0  0  0  0  0  0  0  0  0  0  0  0
    2.0140   -1.4643   -2.1784 C   0  0  0  0  0  0  0  0  0  0  0  0
    1.4520   -2.6333   -1.4099 C   0  0  0  0  0  0  0  0  0  0  0  0
    1.0615   -2.2335    0.0093 C   0  0  0  0  0  0  0  0  0  0  0  0
    0.0931   -1.0395   -0.0108 C   0  0  1  0  0  0  0  0  0  0  0  0
    0.5928   -0.3896    1.9613 H   0  0  0  0  0  0  0  0  0  0  0  0
   -1.7436   -2.3119    1.7182 H   0  0  0  0  0  0  0  0  0  0  0  0
   -0.2257   -2.4391    2.7002 H   0  0  0  0  0  0  0  0  0  0  0  0
   -1.1508   -1.1675    4.4077 H   0  0  0  0  0  0  0  0  0  0  0  0
   -2.7094   -1.3173    3.5492 H   0  0  0  0  0  0  0  0  0  0  0  0
   -3.5641    0.6727    3.2380 H   0  0  0  0  0  0  0  0  0  0  0  0
    1.1877    2.1539    4.9850 H   0  0  0  0  0  0  0  0  0  0  0  0
   -2.4512   -0.0850   -0.3113 H   0  0  0  0  0  0  0  0  0  0  0  0
   -3.2588   -0.4973    1.2000 H   0  0  0  0  0  0  0  0  0  0  0  0
   -4.5913    1.1862    0.2618 H   0  0  0  0  0  0  0  0  0  0  0  0
   -3.2046    2.1252   -0.3591 H   0  0  0  0  0  0  0  0  0  0  0  0
   -3.6064    2.1852    1.3832 H   0  0  0  0  0  0  0  0  0  0  0  0
    0.3596    1.9977    1.5074 H   0  0  0  0  0  0  0  0  0  0  0  0
   -1.1817    2.6896    0.9627 H   0  0  0  0  0  0  0  0  0  0  0  0
   -0.4142    1.8866   -2.5624 H   0  0  0  0  0  0  0  0  0  0  0  0
   -1.2589    2.9889   -1.3577 H   0  0  0  0  0  0  0  0  0  0  0  0
    1.6963    0.4075   -0.0182 H   0  0  0  0  0  0  0  0  0  0  0  0
    0.4851   -0.1231   -2.7935 H   0  0  0  0  0  0  0  0  0  0  0  0
    3.1995    1.0336   -1.8062 H   0  0  0  0  0  0  0  0  0  0  0  0
    1.8785    2.0149   -2.5011 H   0  0  0  0  0  0  0  0  0  0  0  0
    2.0501    0.8457   -4.6629 H   0  0  0  0  0  0  0  0  0  0  0  0
    3.6622    1.4871   -4.1671 H   0  0  0  0  0  0  0  0  0  0  0  0
    3.3471   -2.7044   -3.2469 H   0  0  0  0  0  0  0  0  0  0  0  0
    0.5593   -3.0196   -1.9482 H   0  0  0  0  0  0  0  0  0  0  0  0
    2.1936   -3.4601   -1.3438 H   0  0  0  0  0  0  0  0  0  0  0  0
    1.9759   -1.9835    0.5923 H   0  0  0  0  0  0  0  0  0  0  0  0
    0.5764   -3.1097    0.4902 H   0  0  0  0  0  0  0  0  0  0  0  0
   -0.7782   -1.3400   -0.6264 H   0  0  0  0  0  0  0  0  0  0  0  0
  1  2  1  0
  2  3  1  0
  3  4  1  0
  4  5  1  0
  4  6  1  1
  6  7  3  0
  4  8  1  0
  8  9  1  6
  9 10  1  0
  8 11  1  0
 11 12  1  0
 12 13  2  3
 12 14  1  0
 14 15  1  0
 15 16  1  0
 16 17  1  0
 17 18  1  0
 18 19  2  0
 18 20  1  0
 20 21  2  0
 21 22  1  0
 22 23  1  0
 23 24  1  0
  8  1  1  0
 24 14  1  0
 24  1  1  0
 21 15  1  0
  1 25  1  1
  2 26  1  0
  2 27  1  0
  3 28  1  0
  3 29  1  0
  5 30  1  0
  7 31  1  0
  9 32  1  0
  9 33  1  0
 10 34  1  0
 10 35  1  0
 10 36  1  0
 11 37  1  0
 11 38  1  0
 13 39  1  0
 13 40  1  0
 14 41  1  1
 15 42  1  6
 16 43  1  0
 16 44  1  0
 17 45  1  0
 17 46  1  0
 20 47  1  0
 22 48  1  0
 22 49  1  0
 23 50  1  0
 23 51  1  0
 24 52  1  6
M  END
$$$$
