
     RDKit          3D

 77 80  0  0  0  0  0  0  0  0999 V2000
   -3.8116    5.4101   -2.0949 C   0  0  0  0  0  0  0  0  0  0  0  0
   -2.9587    4.6311   -1.1068 C   0  0  0  0  0  0  0  0  0  0  0  0
   -2.8996    3.2648   -1.5017 O   0  0  0  0  0  0  0  0  0  0  0  0
   -2.1878    2.3019   -0.7802 C   0  0  0  0  0  0  0  0  0  0  0  0
   -1.5730    2.6218    0.2755 O   0  0  0  0  0  0  0  0  0  0  0  0
   -2.2132    0.8667   -1.2484 C   0  0  2  0  0  0  0  0  0  0  0  0
   -3.4716    0.1560   -0.6933 C   0  0  0  0  0  0  0  0  0  0  0  0
   -3.5333    0.0745    0.8431 C   0  0  0  0  0  0  0  0  0  0  0  0
   -4.7790   -0.6497    1.2795 C   0  0  0  0  0  0  0  0  0  0  0  0
   -5.9902    0.0487    1.4199 C   0  0  0  0  0  0  0  0  0  0  0  0
   -7.1554   -0.6294    1.7909 C   0  0  0  0  0  0  0  0  0  0  0  0
   -7.1221   -2.0084    2.0152 C   0  0  0  0  0  0  0  0  0  0  0  0
   -5.9241   -2.7123    1.8656 C   0  0  0  0  0  0  0  0  0  0  0  0
   -4.7564   -2.0382    1.4948 C   0  0  0  0  0  0  0  0  0  0  0  0
   -0.8552    0.1628   -0.9480 C   0  0  0  0  0  0  0  0  0  0  0  0
   -0.5397   -1.2428   -1.5802 C   0  0  0  0  0  0  0  0  0  0  0  0
   -1.0591   -2.4179   -0.7308 C   0  0  0  0  0  0  0  0  0  0  0  0
   -1.2950   -3.5807   -1.6956 C   0  0  0  0  0  0  0  0  0  0  0  0
   -1.2487   -3.0071   -3.1103 C   0  0  0  0  0  0  0  0  0  0  0  0
   -1.2008   -1.4933   -2.9533 C   0  0  0  0  0  0  0  0  0  0  0  0
    0.9854   -1.3704   -1.6802 C   0  0  0  0  0  0  0  0  0  0  0  0
    1.5415   -1.5964   -2.7911 O   0  0  0  0  0  0  0  0  0  0  0  0
    1.8001   -1.2055   -0.5069 N   0  0  0  0  0  0  0  0  0  0  0  0
    3.2523   -1.0099   -0.5861 C   0  0  1  0  0  0  0  0  0  0  0  0
    3.5752    0.4270   -1.0311 C   0  0  0  0  0  0  0  0  0  0  0  0
    3.1393    1.4768    0.0042 C   0  0  0  0  0  0  0  0  0  0  0  0
    4.1013    1.6994    1.1605 C   0  0  0  0  0  0  0  0  0  0  0  0
    4.0497    2.9616    1.7839 C   0  0  0  0  0  0  0  0  0  0  0  0
    4.8694    3.2631    2.8702 C   0  0  0  0  0  0  0  0  0  0  0  0
    5.7472    2.3058    3.3671 C   0  0  0  0  0  0  0  0  0  0  0  0
    5.8047    1.0417    2.7832 C   0  0  0  0  0  0  0  0  0  0  0  0
    4.9885    0.7105    1.6842 C   0  0  0  0  0  0  0  0  0  0  0  0
    5.0844   -0.6181    1.1265 N   0  0  0  0  0  0  0  0  0  0  0  0
    6.3885   -1.2408    0.8648 C   0  0  0  0  0  0  0  0  0  0  0  0
    6.6224   -2.3947    1.7896 C   0  0  0  0  0  0  0  0  0  0  0  0
    6.2237   -3.6737    1.4144 O   0  0  0  0  0  0  0  0  0  0  0  0
    7.1538   -2.2071    2.9162 O   0  0  0  0  0  0  0  0  0  0  0  0
    3.9032   -1.3216    0.7300 C   0  0  0  0  0  0  0  0  0  0  0  0
    3.4782   -2.2741    1.4379 O   0  0  0  0  0  0  0  0  0  0  0  0
   -4.8410    4.9938   -2.1178 H   0  0  0  0  0  0  0  0  0  0  0  0
   -3.8600    6.4765   -1.7894 H   0  0  0  0  0  0  0  0  0  0  0  0
   -3.3691    5.3453   -3.1115 H   0  0  0  0  0  0  0  0  0  0  0  0
   -3.4076    4.7095   -0.0928 H   0  0  0  0  0  0  0  0  0  0  0  0
   -1.9336    5.0608   -1.0871 H   0  0  0  0  0  0  0  0  0  0  0  0
   -2.3228    0.9321   -2.3509 H   0  0  0  0  0  0  0  0  0  0  0  0
   -3.5631   -0.8583   -1.1292 H   0  0  0  0  0  0  0  0  0  0  0  0
   -4.3665    0.7144   -1.0488 H   0  0  0  0  0  0  0  0  0  0  0  0
   -3.5370    1.0964    1.2790 H   0  0  0  0  0  0  0  0  0  0  0  0
   -2.6420   -0.4479    1.2468 H   0  0  0  0  0  0  0  0  0  0  0  0
   -6.0313    1.1159    1.2397 H   0  0  0  0  0  0  0  0  0  0  0  0
   -8.0851   -0.0862    1.9011 H   0  0  0  0  0  0  0  0  0  0  0  0
   -8.0252   -2.5320    2.3010 H   0  0  0  0  0  0  0  0  0  0  0  0
   -5.9007   -3.7812    2.0342 H   0  0  0  0  0  0  0  0  0  0  0  0
   -3.8374   -2.5981    1.3770 H   0  0  0  0  0  0  0  0  0  0  0  0
   -0.7057    0.1067    0.1510 H   0  0  0  0  0  0  0  0  0  0  0  0
   -0.0728    0.8691   -1.3113 H   0  0  0  0  0  0  0  0  0  0  0  0
   -2.0159   -2.1681   -0.2406 H   0  0  0  0  0  0  0  0  0  0  0  0
   -0.3575   -2.7170    0.0778 H   0  0  0  0  0  0  0  0  0  0  0  0
   -0.5016   -4.3501   -1.5715 H   0  0  0  0  0  0  0  0  0  0  0  0
   -2.2828   -4.0521   -1.4977 H   0  0  0  0  0  0  0  0  0  0  0  0
   -2.1378   -3.3203   -3.7004 H   0  0  0  0  0  0  0  0  0  0  0  0
   -0.3333   -3.3613   -3.6330 H   0  0  0  0  0  0  0  0  0  0  0  0
   -0.6625   -1.0030   -3.7933 H   0  0  0  0  0  0  0  0  0  0  0  0
   -2.2510   -1.1474   -2.9803 H   0  0  0  0  0  0  0  0  0  0  0  0
    1.3287   -1.0916    0.4190 H   0  0  0  0  0  0  0  0  0  0  0  0
    3.6764   -1.7160   -1.3329 H   0  0  0  0  0  0  0  0  0  0  0  0
    3.0436    0.6276   -1.9869 H   0  0  0  0  0  0  0  0  0  0  0  0
    4.6610    0.5323   -1.2488 H   0  0  0  0  0  0  0  0  0  0  0  0
    2.1359    1.2337    0.4133 H   0  0  0  0  0  0  0  0  0  0  0  0
    3.0236    2.4359   -0.5479 H   0  0  0  0  0  0  0  0  0  0  0  0
    3.3673    3.7228    1.4251 H   0  0  0  0  0  0  0  0  0  0  0  0
    4.8191    4.2412    3.3311 H   0  0  0  0  0  0  0  0  0  0  0  0
    6.3794    2.5400    4.2139 H   0  0  0  0  0  0  0  0  0  0  0  0
    6.4803    0.3110    3.2050 H   0  0  0  0  0  0  0  0  0  0  0  0
    6.4206   -1.6025   -0.1859 H   0  0  0  0  0  0  0  0  0  0  0  0
    7.2110   -0.5004    0.9716 H   0  0  0  0  0  0  0  0  0  0  0  0
    6.3624   -4.4636    2.0333 H   0  0  0  0  0  0  0  0  0  0  0  0
  1  2  1  0
  2  3  1  0
  3  4  1  0
  4  5  2  0
  4  6  1  0
  6  7  1  0
  7  8  1  0
  8  9  1  0
  9 10  2  0
 10 11  1  0
 11 12  2  0
 12 13  1  0
 13 14  2  0
  6 15  1  0
 15 16  1  0
 16 17  1  0
 17 18  1  0
 18 19  1  0
 19 20  1  0
 16 21  1  0
 21 22  2  0
 21 23  1  0
 23 24  1  0
 24 25  1  0
 25 26  1  0
 26 27  1  0
 27 28  2  0
 28 29  1  0
 29 30  2  0
 30 31  1  0
 31 32  2  0
 32 33  1  0
 33 34  1  0
 34 35  1  0
 35 36  1  0
 35 37  2  0
 33 38  1  0
 38 39  2  0
 14  9  1  0
 20 16  1  0
 38 24  1  0
 32 27  1  0
  1 40  1  0
  1 41  1  0
  1 42  1  0
  2 43  1  0
  2 44  1  0
  6 45  1  6
  7 46  1  0
  7 47  1  0
  8 48  1  0
  8 49  1  0
 10 50  1  0
 11 51  1  0
 12 52  1  0
 13 53  1  0
 14 54  1  0
 15 55  1  0
 15 56  1  0
 17 57  1  0
 17 58  1  0
 18 59  1  0
 18 60  1  0
 19 61  1  0
 19 62  1  0
 20 63  1  0
 20 64  1  0
 23 65  1  0
 24 66  1  6
 25 67  1  0
 25 68  1  0
 26 69  1  0
 26 70  1  0
 28 71  1  0
 29 72  1  0
 30 73  1  0
 31 74  1  0
 34 75  1  0
 34 76  1  0
 36 77  1  0
M  END
$$$$
