
     RDKit          3D

 29 28  0  0  0  0  0  0  0  0999 V2000
    0.0000    0.0000    0.0000 Zn  0  0  0  0  0 15  0  0  0  0  0  0
   -0.9216   -1.5200    0.6233 C   0  0  2  0  0  0  0  0  0  0  0  0
   -2.3170   -1.0589    0.1715 C   0  0  0  0  0  0  0  0  0  0  0  0
   -2.2607   -0.0274   -0.9201 C   0  0  0  0  0  0  0  0  0  0  0  0
   -2.3391   -0.2619   -2.2746 C   0  0  0  0  0  0  0  0  0  0  0  0
   -2.1885    0.9046   -2.9331 N   0  0  0  0  0  0  0  0  0  0  0  0
   -2.0169    1.8213   -1.9560 C   0  0  0  0  0  0  0  0  0  0  0  0
   -2.0518    1.2834   -0.7227 N   0  0  0  0  0  0  0  0  0  0  0  0
   -0.1509   -0.3779    1.1105 N   0  0  0  0  0  2  0  0  0  0  0  0
    1.1018   -0.4958    1.7916 C   0  0  0  0  0  0  0  0  0  0  0  0
    1.5877   -1.6312    2.0454 O   0  0  0  0  0  0  0  0  0  0  0  0
    1.8568    0.7413    2.1675 C   0  0  0  0  0  0  0  0  0  0  0  0
    2.5123    1.3827    0.9414 C   0  0  0  0  0  0  0  0  0  0  0  0
    3.5038    0.4853    0.3542 N   0  0  0  0  0  0  0  0  0  0  0  0
   -0.1903   -2.2148   -0.4933 C   0  0  0  0  0  0  0  0  0  0  0  0
    0.6065   -1.4902   -1.3725 O   0  0  0  0  0  1  0  0  0  0  0  0
   -0.3335   -3.4541   -0.6640 O   0  0  0  0  0  0  0  0  0  0  0  0
   -1.0577   -2.2379    1.4625 H   0  0  0  0  0  0  0  0  0  0  0  0
   -2.9055   -1.9361   -0.1762 H   0  0  0  0  0  0  0  0  0  0  0  0
   -2.8563   -0.6274    1.0424 H   0  0  0  0  0  0  0  0  0  0  0  0
   -2.4850   -1.2205   -2.7546 H   0  0  0  0  0  0  0  0  0  0  0  0
   -1.8610    2.8749   -2.1460 H   0  0  0  0  0  0  0  0  0  0  0  0
   -1.9314    1.7807    0.1876 H   0  0  0  0  0  0  0  0  0  0  0  0
    1.1511    1.4682    2.6237 H   0  0  0  0  0  0  0  0  0  0  0  0
    2.6325    0.5008    2.9271 H   0  0  0  0  0  0  0  0  0  0  0  0
    3.0008    2.3358    1.2438 H   0  0  0  0  0  0  0  0  0  0  0  0
    1.7328    1.6220    0.1841 H   0  0  0  0  0  0  0  0  0  0  0  0
    4.3113    0.4128    1.0152 H   0  0  0  0  0  0  0  0  0  0  0  0
    3.8697    0.9399   -0.5135 H   0  0  0  0  0  0  0  0  0  0  0  0
  2  3  1  0
  3  4  1  0
  4  5  2  0
  5  6  1  0
  6  7  2  0
  7  8  1  0
  2  9  1  0
  9 10  1  0
 10 11  2  0
 10 12  1  0
 12 13  1  0
 13 14  1  0
  2 15  1  0
 15 16  1  0
 15 17  2  0
  8  4  1  0
  2 18  1  1
  3 19  1  0
  3 20  1  0
  5 21  1  0
  7 22  1  0
  8 23  1  0
 12 24  1  0
 12 25  1  0
 13 26  1  0
 13 27  1  0
 14 28  1  0
 14 29  1  0
M  CHG  3   1   2   9  -1  16  -1
M  END
$$$$
