
     RDKit          3D

 55 58  0  0  0  0  0  0  0  0999 V2000
   -7.2413    1.0605   -0.0551 C   0  0  1  0  0  0  0  0  0  0  0  0
   -6.6612    2.0744   -1.0521 C   0  0  0  0  0  0  0  0  0  0  0  0
   -8.7326    0.7867   -0.4064 C   0  0  0  0  0  0  0  0  0  0  0  0
   -9.2822   -0.3477    0.3465 N   0  0  0  0  0  0  0  0  0  0  0  0
   -8.5107   -1.5408    0.5131 C   0  0  0  0  0  0  0  0  0  0  0  0
   -9.0508   -2.6117    0.8969 O   0  0  0  0  0  0  0  0  0  0  0  0
   -7.0752   -1.4574    0.2682 C   0  0  0  0  0  0  0  0  0  0  0  0
   -6.4663   -0.2483   -0.0224 C   0  0  0  0  0  0  0  0  0  0  0  0
   -5.1035   -0.5313   -0.0245 C   0  0  0  0  0  0  0  0  0  0  0  0
   -3.9736    0.2785   -0.1700 C   0  0  0  0  0  0  0  0  0  0  0  0
   -2.6940   -0.3210   -0.0908 C   0  0  0  0  0  0  0  0  0  0  0  0
   -2.5916   -1.7190    0.1318 C   0  0  0  0  0  0  0  0  0  0  0  0
   -3.7415   -2.5070    0.2967 C   0  0  0  0  0  0  0  0  0  0  0  0
   -4.9826   -1.8836    0.2145 C   0  0  0  0  0  0  0  0  0  0  0  0
   -6.1830   -2.4610    0.3979 N   0  0  0  0  0  0  0  0  0  0  0  0
   -1.4773    0.5106   -0.2581 C   0  0  0  0  0  0  0  0  0  0  0  0
   -1.5683    1.6261   -0.8395 O   0  0  0  0  0  0  0  0  0  0  0  0
   -0.2119    0.0793    0.2711 N   0  0  0  0  0  0  0  0  0  0  0  0
    1.0567    0.6038   -0.1454 C   0  0  0  0  0  0  0  0  0  0  0  0
    2.2092    0.3028    0.4892 N   0  0  0  0  0  0  0  0  0  0  0  0
    3.2901    0.8792   -0.1066 C   0  0  0  0  0  0  0  0  0  0  0  0
    2.9954    1.6362   -1.2433 C   0  0  0  0  0  0  0  0  0  0  0  0
    1.3332    1.5762   -1.4917 S   0  0  0  0  0  0  0  0  0  0  0  0
    4.6513    0.6708    0.4257 C   0  0  0  0  0  0  0  0  0  0  0  0
    4.8179   -0.1637    1.3565 O   0  0  0  0  0  0  0  0  0  0  0  0
    5.7777    1.4044   -0.0839 N   0  0  0  0  0  0  0  0  0  0  0  0
    7.1490    1.1199    0.3358 C   0  0  0  0  0  0  0  0  0  0  0  0
    7.6478   -0.1804   -0.3259 C   0  0  0  0  0  0  0  0  0  0  0  0
    9.0348   -0.5552    0.0310 N   0  0  0  0  0  0  0  0  0  0  0  0
   10.0315    0.4268   -0.4237 C   0  0  0  0  0  0  0  0  0  0  0  0
    9.1973   -0.8557    1.4621 C   0  0  0  0  0  0  0  0  0  0  0  0
   -7.2054    1.5049    0.9635 H   0  0  0  0  0  0  0  0  0  0  0  0
   -5.8048    2.6142   -0.6037 H   0  0  0  0  0  0  0  0  0  0  0  0
   -6.3458    1.5723   -1.9920 H   0  0  0  0  0  0  0  0  0  0  0  0
   -7.4149    2.8510   -1.3046 H   0  0  0  0  0  0  0  0  0  0  0  0
   -8.8215    0.5583   -1.4915 H   0  0  0  0  0  0  0  0  0  0  0  0
   -9.3408    1.6938   -0.1983 H   0  0  0  0  0  0  0  0  0  0  0  0
  -10.2763   -0.3223    0.6665 H   0  0  0  0  0  0  0  0  0  0  0  0
   -4.0639    1.3402   -0.3236 H   0  0  0  0  0  0  0  0  0  0  0  0
   -1.6265   -2.2063    0.1669 H   0  0  0  0  0  0  0  0  0  0  0  0
   -3.6630   -3.5704    0.4834 H   0  0  0  0  0  0  0  0  0  0  0  0
   -6.3780   -3.4586    0.6388 H   0  0  0  0  0  0  0  0  0  0  0  0
   -0.2043   -0.6276    1.0398 H   0  0  0  0  0  0  0  0  0  0  0  0
    3.6967    2.1560   -1.8802 H   0  0  0  0  0  0  0  0  0  0  0  0
    5.6250    2.2213   -0.7151 H   0  0  0  0  0  0  0  0  0  0  0  0
    7.7940    1.9689    0.0271 H   0  0  0  0  0  0  0  0  0  0  0  0
    7.1840    1.0469    1.4427 H   0  0  0  0  0  0  0  0  0  0  0  0
    6.9679   -1.0167   -0.0543 H   0  0  0  0  0  0  0  0  0  0  0  0
    7.5725   -0.0721   -1.4303 H   0  0  0  0  0  0  0  0  0  0  0  0
    9.8573    0.6956   -1.4878 H   0  0  0  0  0  0  0  0  0  0  0  0
   10.0100    1.3492    0.1960 H   0  0  0  0  0  0  0  0  0  0  0  0
   11.0476   -0.0169   -0.3557 H   0  0  0  0  0  0  0  0  0  0  0  0
    9.1746    0.0681    2.0796 H   0  0  0  0  0  0  0  0  0  0  0  0
    8.3997   -1.5476    1.8086 H   0  0  0  0  0  0  0  0  0  0  0  0
   10.1715   -1.3632    1.6268 H   0  0  0  0  0  0  0  0  0  0  0  0
  1  2  1  0
  1  3  1  0
  3  4  1  0
  4  5  1  0
  5  6  2  0
  5  7  1  0
  7  8  2  0
  8  9  1  0
  9 10  2  0
 10 11  1  0
 11 12  2  0
 12 13  1  0
 13 14  2  0
 14 15  1  0
 11 16  1  0
 16 17  2  0
 16 18  1  0
 18 19  1  0
 19 20  2  0
 20 21  1  0
 21 22  2  0
 22 23  1  0
 21 24  1  0
 24 25  2  0
 24 26  1  0
 26 27  1  0
 27 28  1  0
 28 29  1  0
 29 30  1  0
 29 31  1  0
  8  1  1  0
 14  9  1  0
 23 19  1  0
 15  7  1  0
  1 32  1  1
  2 33  1  0
  2 34  1  0
  2 35  1  0
  3 36  1  0
  3 37  1  0
  4 38  1  0
 10 39  1  0
 12 40  1  0
 13 41  1  0
 15 42  1  0
 18 43  1  0
 22 44  1  0
 26 45  1  0
 27 46  1  0
 27 47  1  0
 28 48  1  0
 28 49  1  0
 30 50  1  0
 30 51  1  0
 30 52  1  0
 31 53  1  0
 31 54  1  0
 31 55  1  0
M  END
$$$$
