
     RDKit          3D

 53 58  0  0  0  0  0  0  0  0999 V2000
   -4.0869   -1.0026   -1.1410 O   0  0  0  0  0  0  0  0  0  0  0  0
   -3.4238   -1.8513   -0.2338 C   0  0  1  0  0  0  0  0  0  0  0  0
   -2.3527   -2.6490   -1.0011 C   0  0  0  0  0  0  0  0  0  0  0  0
   -1.1375   -1.7828   -1.3589 C   0  0  0  0  0  0  0  0  0  0  0  0
   -0.4464   -1.2843   -0.0759 C   0  0  1  0  0  0  0  0  0  0  0  0
    0.0599   -2.4124    0.6143 O   0  0  0  0  0  0  0  0  0  0  0  0
    0.7698   -0.3430   -0.3527 C   0  0  1  0  0  0  0  0  0  0  0  0
    0.3788    0.9883   -1.0987 C   0  0  0  0  0  0  0  0  0  0  0  0
   -0.9247    1.5892   -0.6348 C   0  0  0  0  0  0  0  0  0  0  0  0
   -1.4100    2.8291   -1.0951 C   0  0  0  0  0  0  0  0  0  0  0  0
   -2.7073    3.2608   -0.7294 C   0  0  0  0  0  0  0  0  0  0  0  0
   -3.5418    2.4323    0.0501 C   0  0  0  0  0  0  0  0  0  0  0  0
   -4.8406    2.8256    0.3611 O   0  0  0  0  0  0  0  0  0  0  0  0
   -3.0299    1.2028    0.4701 C   0  0  0  0  0  0  0  0  0  0  0  0
   -1.7552    0.8366    0.1765 C   0  0  0  0  0  0  0  0  0  0  0  0
   -1.4306   -0.4658    0.8065 C   0  0  2  0  0  0  0  0  0  0  0  0
   -0.7389   -0.1599    2.1642 C   0  0  0  0  0  0  0  0  0  0  0  0
    0.6190    0.5566    1.9661 C   0  0  0  0  0  0  0  0  0  0  0  0
    1.4647   -0.1149    0.9498 N   0  0  0  0  0  0  0  0  0  0  0  0
    2.8053    0.5086    0.8640 C   0  0  0  0  0  0  0  0  0  0  0  0
    3.8181   -0.3942    0.1273 C   0  0  0  0  0  0  0  0  0  0  0  0
    5.2720    0.0346    0.3342 C   0  0  0  0  0  0  0  0  0  0  0  0
    5.4108    0.3015   -1.1570 C   0  0  0  0  0  0  0  0  0  0  0  0
    3.9627   -0.1116   -1.3702 C   0  0  0  0  0  0  0  0  0  0  0  0
   -2.8846   -1.0287    0.9891 C   0  0  1  0  0  0  0  0  0  0  0  0
   -3.6865    0.1619    1.1063 O   0  0  0  0  0  0  0  0  0  0  0  0
   -4.7234   -1.5636   -1.6572 H   0  0  0  0  0  0  0  0  0  0  0  0
   -4.1625   -2.5821    0.1724 H   0  0  0  0  0  0  0  0  0  0  0  0
   -2.7946   -3.0432   -1.9421 H   0  0  0  0  0  0  0  0  0  0  0  0
   -2.0494   -3.5406   -0.4141 H   0  0  0  0  0  0  0  0  0  0  0  0
   -0.4217   -2.3913   -1.9533 H   0  0  0  0  0  0  0  0  0  0  0  0
   -1.4675   -0.9351   -1.9965 H   0  0  0  0  0  0  0  0  0  0  0  0
   -0.6634   -2.8173    1.1588 H   0  0  0  0  0  0  0  0  0  0  0  0
    1.4482   -0.9097   -1.0232 H   0  0  0  0  0  0  0  0  0  0  0  0
    0.2729    0.7590   -2.1806 H   0  0  0  0  0  0  0  0  0  0  0  0
    1.1746    1.7522   -1.0267 H   0  0  0  0  0  0  0  0  0  0  0  0
   -0.7998    3.4470   -1.7414 H   0  0  0  0  0  0  0  0  0  0  0  0
   -3.0739    4.2155   -1.0838 H   0  0  0  0  0  0  0  0  0  0  0  0
   -5.4526    2.2356    0.9124 H   0  0  0  0  0  0  0  0  0  0  0  0
   -1.3912    0.4804    2.7991 H   0  0  0  0  0  0  0  0  0  0  0  0
   -0.5741   -1.0998    2.7329 H   0  0  0  0  0  0  0  0  0  0  0  0
    1.1398    0.5518    2.9487 H   0  0  0  0  0  0  0  0  0  0  0  0
    0.4564    1.6223    1.6942 H   0  0  0  0  0  0  0  0  0  0  0  0
    2.7656    1.5275    0.4277 H   0  0  0  0  0  0  0  0  0  0  0  0
    3.1977    0.6387    1.8974 H   0  0  0  0  0  0  0  0  0  0  0  0
    3.6750   -1.4758    0.3485 H   0  0  0  0  0  0  0  0  0  0  0  0
    5.9169   -0.8048    0.6747 H   0  0  0  0  0  0  0  0  0  0  0  0
    5.3960    0.9620    0.9365 H   0  0  0  0  0  0  0  0  0  0  0  0
    5.5856    1.3761   -1.3838 H   0  0  0  0  0  0  0  0  0  0  0  0
    6.1294   -0.3894   -1.6499 H   0  0  0  0  0  0  0  0  0  0  0  0
    3.8741   -1.0343   -1.9844 H   0  0  0  0  0  0  0  0  0  0  0  0
    3.3404    0.7301   -1.7437 H   0  0  0  0  0  0  0  0  0  0  0  0
   -2.9622   -1.6385    1.9158 H   0  0  0  0  0  0  0  0  0  0  0  0
  1  2  1  0
  2  3  1  0
  3  4  1  0
  4  5  1  0
  5  6  1  1
  5  7  1  0
  7  8  1  0
  8  9  1  0
  9 10  2  0
 10 11  1  0
 11 12  2  0
 12 13  1  0
 12 14  1  0
 14 15  2  0
 15 16  1  0
 16 17  1  1
 17 18  1  0
 18 19  1  0
 19 20  1  0
 20 21  1  0
 21 22  1  0
 22 23  1  0
 23 24  1  0
 16 25  1  0
 25 26  1  0
 25  2  1  0
 16  5  1  0
 24 21  1  0
 19  7  1  0
 15  9  1  0
 26 14  1  0
  1 27  1  0
  2 28  1  1
  3 29  1  0
  3 30  1  0
  4 31  1  0
  4 32  1  0
  6 33  1  0
  7 34  1  6
  8 35  1  0
  8 36  1  0
 10 37  1  0
 11 38  1  0
 13 39  1  0
 17 40  1  0
 17 41  1  0
 18 42  1  0
 18 43  1  0
 20 44  1  0
 20 45  1  0
 21 46  1  0
 22 47  1  0
 22 48  1  0
 23 49  1  0
 23 50  1  0
 24 51  1  0
 24 52  1  0
 25 53  1  1
M  END
$$$$
