
     RDKit          3D

 59 61  0  0  0  0  0  0  0  0999 V2000
   -6.8376    0.2279    1.0813 C   0  0  2  0  0  0  0  0  0  0  0  0
   -7.0671   -0.9362    0.0939 C   0  0  0  0  0  0  0  0  0  0  0  0
   -5.9266   -1.9070    0.0111 C   0  0  0  0  0  0  0  0  0  0  0  0
   -4.9845   -1.7852   -1.0050 O   0  0  0  0  0  0  0  0  0  0  0  0
   -5.8175   -2.8316    0.8602 O   0  0  0  0  0  0  0  0  0  0  0  0
   -5.7158    1.0821    0.6657 N   0  0  0  0  0  0  0  0  0  0  0  0
   -4.3228    0.7691    0.8532 C   0  0  0  0  0  0  0  0  0  0  0  0
   -3.9882   -0.2449    1.5251 O   0  0  0  0  0  0  0  0  0  0  0  0
   -3.2630    1.7156    0.3251 C   0  0  1  0  0  0  0  0  0  0  0  0
   -1.8162    1.1942    0.5018 C   0  0  0  0  0  0  0  0  0  0  0  0
   -1.4702   -0.0104   -0.3977 C   0  0  0  0  0  0  0  0  0  0  0  0
   -0.1504   -0.6865    0.0035 C   0  0  0  0  0  0  0  0  0  0  0  0
    1.0750    0.1938   -0.2794 C   0  0  0  0  0  0  0  0  0  0  0  0
    2.3142   -0.5289    0.0085 N   0  0  0  0  0  0  0  0  0  0  0  0
    3.5963    0.0876   -0.1915 C   0  0  0  0  0  0  0  0  0  0  0  0
    3.6662    1.2004   -0.7812 O   0  0  0  0  0  0  0  0  0  0  0  0
    4.8480   -0.5619    0.2534 C   0  0  0  0  0  0  0  0  0  0  0  0
    6.0273   -0.1563   -0.2947 N   0  0  0  0  0  0  0  0  0  0  0  0
    7.2245   -0.6947    0.0645 C   0  0  0  0  0  0  0  0  0  0  0  0
    7.2662   -1.7095    1.0465 C   0  0  0  0  0  0  0  0  0  0  0  0
    8.4961   -2.2688    1.4214 C   0  0  0  0  0  0  0  0  0  0  0  0
    9.6773   -1.8223    0.8233 C   0  0  0  0  0  0  0  0  0  0  0  0
    9.6387   -0.8180   -0.1483 C   0  0  0  0  0  0  0  0  0  0  0  0
    8.4188   -0.2493   -0.5330 C   0  0  0  0  0  0  0  0  0  0  0  0
    8.4171    0.7513   -1.5056 O   0  0  0  0  0  0  0  0  0  0  0  0
    6.0691   -2.1340    1.6337 C   0  0  0  0  0  0  0  0  0  0  0  0
    4.8580   -1.5598    1.2431 C   0  0  0  0  0  0  0  0  0  0  0  0
   -3.5255    2.1187   -1.1063 C   0  0  0  0  0  0  0  0  0  0  0  0
   -3.1931    3.3475   -1.6645 C   0  0  0  0  0  0  0  0  0  0  0  0
   -3.4808    3.4333   -3.0320 C   0  0  0  0  0  0  0  0  0  0  0  0
   -4.0270    2.2721   -3.5622 C   0  0  0  0  0  0  0  0  0  0  0  0
   -4.1483    1.1374   -2.3286 S   0  0  0  0  0  0  0  0  0  0  0  0
   -6.6998   -0.2225    2.5136 C   0  0  0  0  0  0  0  0  0  0  0  0
   -6.5574    0.6016    3.4029 O   0  0  0  0  0  0  0  0  0  0  0  0
   -7.7616    0.8470    1.0412 H   0  0  0  0  0  0  0  0  0  0  0  0
   -7.2499   -0.5151   -0.9186 H   0  0  0  0  0  0  0  0  0  0  0  0
   -7.9881   -1.4872    0.3852 H   0  0  0  0  0  0  0  0  0  0  0  0
   -4.2057   -2.4294   -1.0719 H   0  0  0  0  0  0  0  0  0  0  0  0
   -5.9559    1.9970    0.2210 H   0  0  0  0  0  0  0  0  0  0  0  0
   -3.3458    2.6345    0.9463 H   0  0  0  0  0  0  0  0  0  0  0  0
   -1.6573    0.9268    1.5697 H   0  0  0  0  0  0  0  0  0  0  0  0
   -1.1177    2.0274    0.2704 H   0  0  0  0  0  0  0  0  0  0  0  0
   -1.4066    0.3153   -1.4584 H   0  0  0  0  0  0  0  0  0  0  0  0
   -2.2747   -0.7720   -0.3311 H   0  0  0  0  0  0  0  0  0  0  0  0
   -0.0541   -1.6279   -0.5807 H   0  0  0  0  0  0  0  0  0  0  0  0
   -0.1772   -0.9593    1.0812 H   0  0  0  0  0  0  0  0  0  0  0  0
    1.0717    0.5011   -1.3480 H   0  0  0  0  0  0  0  0  0  0  0  0
    1.0379    1.1039    0.3560 H   0  0  0  0  0  0  0  0  0  0  0  0
    2.2633   -1.5236    0.3227 H   0  0  0  0  0  0  0  0  0  0  0  0
    8.5434   -3.0470    2.1738 H   0  0  0  0  0  0  0  0  0  0  0  0
   10.6259   -2.2552    1.1137 H   0  0  0  0  0  0  0  0  0  0  0  0
   10.5604   -0.4797   -0.6046 H   0  0  0  0  0  0  0  0  0  0  0  0
    7.5643    1.1972   -1.8215 H   0  0  0  0  0  0  0  0  0  0  0  0
    6.0704   -2.9020    2.3981 H   0  0  0  0  0  0  0  0  0  0  0  0
    3.9497   -1.8807    1.7336 H   0  0  0  0  0  0  0  0  0  0  0  0
   -2.7478    4.1577   -1.1021 H   0  0  0  0  0  0  0  0  0  0  0  0
   -3.2872    4.3186   -3.6227 H   0  0  0  0  0  0  0  0  0  0  0  0
   -4.3144    2.1227   -4.5940 H   0  0  0  0  0  0  0  0  0  0  0  0
   -6.7441   -1.2747    2.7732 H   0  0  0  0  0  0  0  0  0  0  0  0
  1  2  1  0
  2  3  1  0
  3  4  1  0
  3  5  2  0
  1  6  1  0
  6  7  1  0
  7  8  2  0
  7  9  1  0
  9 10  1  0
 10 11  1  0
 11 12  1  0
 12 13  1  0
 13 14  1  0
 14 15  1  0
 15 16  2  0
 15 17  1  0
 17 18  2  0
 18 19  1  0
 19 20  2  0
 20 21  1  0
 21 22  2  0
 22 23  1  0
 23 24  2  0
 24 25  1  0
 20 26  1  0
 26 27  2  0
  9 28  1  0
 28 29  2  0
 29 30  1  0
 30 31  2  0
 31 32  1  0
  1 33  1  0
 33 34  2  0
 27 17  1  0
 32 28  1  0
 24 19  1  0
  1 35  1  1
  2 36  1  0
  2 37  1  0
  4 38  1  0
  6 39  1  0
  9 40  1  1
 10 41  1  0
 10 42  1  0
 11 43  1  0
 11 44  1  0
 12 45  1  0
 12 46  1  0
 13 47  1  0
 13 48  1  0
 14 49  1  0
 21 50  1  0
 22 51  1  0
 23 52  1  0
 25 53  1  0
 26 54  1  0
 27 55  1  0
 29 56  1  0
 30 57  1  0
 31 58  1  0
 33 59  1  0
M  END
$$$$
