
     RDKit          3D

136139  0  0  0  0  0  0  0  0999 V2000
    2.9967   -6.0744    0.8349 C   0  0  0  0  0  0  0  0  0  0  0  0
    3.6985   -5.3494   -0.3186 C   0  0  0  0  0  0  0  0  0  0  0  0
    3.2660   -3.8665   -0.5037 C   0  0  1  0  0  0  0  0  0  0  0  0
    1.9346   -3.6769    0.0158 O   0  0  0  0  0  0  0  0  0  0  0  0
    0.8703   -3.1049   -0.7021 C   0  0  0  0  0  0  0  0  0  0  0  0
    1.0751   -2.5486   -1.8159 O   0  0  0  0  0  0  0  0  0  0  0  0
   -0.5387   -3.1897   -0.1575 C   0  0  2  0  0  0  0  0  0  0  0  0
   -1.4215   -3.8924   -1.2008 C   0  0  0  0  0  0  0  0  0  0  0  0
   -1.1013   -1.7846    0.2652 C   0  0  1  0  0  0  0  0  0  0  0  0
   -2.5159   -1.8863    0.3888 O   0  0  0  0  0  0  0  0  0  0  0  0
   -3.2006   -0.7701   -0.1523 C   0  0  1  0  0  0  0  0  0  0  0  0
   -3.5332   -0.9955   -1.6520 C   0  0  0  0  0  0  0  0  0  0  0  0
   -4.9121   -0.4213   -2.0518 C   0  0  1  0  0  0  0  0  0  0  0  0
   -4.8632    1.1301   -1.9225 C   0  0  0  0  0  0  0  0  0  0  0  0
   -5.1216   -0.8221   -3.4080 O   0  0  0  0  0  0  0  0  0  0  0  0
   -6.2649   -0.2427   -4.0096 C   0  0  0  0  0  0  0  0  0  0  0  0
   -5.9938   -1.0416   -1.0993 C   0  0  1  0  0  0  0  0  0  0  0  0
   -6.5130   -2.2159   -1.6751 O   0  0  0  0  0  0  0  0  0  0  0  0
   -5.4123   -1.3894    0.3022 C   0  0  2  0  0  0  0  0  0  0  0  0
   -6.4854   -1.2877    1.3867 C   0  0  0  0  0  0  0  0  0  0  0  0
   -4.3543   -0.5141    0.6348 O   0  0  0  0  0  0  0  0  0  0  0  0
   -0.4750   -1.3183    1.6342 C   0  0  2  0  0  0  0  0  0  0  0  0
   -1.2276   -1.9287    2.8401 C   0  0  0  0  0  0  0  0  0  0  0  0
   -0.2834    0.2499    1.8036 C   0  0  1  0  0  0  0  0  0  0  0  0
   -1.4574    0.7856    2.4189 O   0  0  0  0  0  0  0  0  0  0  0  0
   -1.5833    2.2004    2.2821 C   0  0  2  0  0  0  0  0  0  0  0  0
   -1.7607    2.7456    3.5767 O   0  0  0  0  0  0  0  0  0  0  0  0
   -1.6304    4.1595    3.5515 C   0  0  2  0  0  0  0  0  0  0  0  0
   -1.9889    4.6986    4.9360 C   0  0  0  0  0  0  0  0  0  0  0  0
   -2.5059    4.8124    2.4452 C   0  0  0  0  0  0  0  0  0  0  0  0
   -3.5775    3.8255    1.9117 C   0  0  1  0  0  0  0  0  0  0  0  0
   -2.8181    2.5459    1.4067 C   0  0  1  0  0  0  0  0  0  0  0  0
   -2.4368    2.6948    0.0594 O   0  0  0  0  0  0  0  0  0  0  0  0
   -4.6155    3.5248    2.9531 N   0  0  0  0  0  0  0  0  0  0  0  0
   -5.3694    4.7439    3.3231 C   0  0  0  0  0  0  0  0  0  0  0  0
   -5.5889    2.5045    2.4974 C   0  0  0  0  0  0  0  0  0  0  0  0
    1.0612    0.6997    2.5904 C   0  0  2  0  0  0  0  0  0  0  0  0
    1.9491   -0.4668    3.0853 C   0  0  0  0  0  0  0  0  0  0  0  0
    0.6642    1.3861    3.7594 O   0  0  0  0  0  0  0  0  0  0  0  0
    1.9803    1.6695    1.7409 C   0  0  0  0  0  0  0  0  0  0  0  0
    2.2004    1.3223    0.2281 C   0  0  1  0  0  0  0  0  0  0  0  0
    1.5450    2.4183   -0.6419 C   0  0  0  0  0  0  0  0  0  0  0  0
    3.7127    1.1374   -0.1765 C   0  0  2  0  0  0  0  0  0  0  0  0
    3.8639    1.1393   -1.6458 N   0  0  0  0  0  0  0  0  0  0  0  0
    3.3881   -0.1200   -2.2542 C   0  0  1  0  0  0  0  0  0  0  0  0
    3.5892   -0.0769   -3.7702 C   0  0  0  0  0  0  0  0  0  0  0  0
    4.9696   -0.0512   -4.0691 O   0  0  0  0  0  0  0  0  0  0  0  0
    5.1494    0.0146   -5.4677 C   0  0  0  0  0  0  0  0  0  0  0  0
    6.6434    0.0414   -5.7839 C   0  0  0  0  0  0  0  0  0  0  0  0
    7.2731    1.1222   -5.1204 O   0  0  0  0  0  0  0  0  0  0  0  0
    7.3881    2.2314   -5.9843 C   0  0  0  0  0  0  0  0  0  0  0  0
    4.0787   -1.2409   -1.7301 O   0  0  0  0  0  0  0  0  0  0  0  0
    3.8318   -1.3857   -0.3399 C   0  0  2  0  0  0  0  0  0  0  0  0
    4.3970   -0.1391    0.4133 C   0  0  1  0  0  0  0  0  0  0  0  0
    5.9313   -0.0297    0.3073 C   0  0  0  0  0  0  0  0  0  0  0  0
    4.2852   -2.8249    0.0979 C   0  0  1  0  0  0  0  0  0  0  0  0
    4.3457   -3.0015    1.6389 C   0  0  0  0  0  0  0  0  0  0  0  0
    5.5473   -3.0925   -0.4790 O   0  0  0  0  0  0  0  0  0  0  0  0
    3.4216   -7.0946    0.9422 H   0  0  0  0  0  0  0  0  0  0  0  0
    3.1316   -5.5370    1.7942 H   0  0  0  0  0  0  0  0  0  0  0  0
    1.9105   -6.1737    0.6246 H   0  0  0  0  0  0  0  0  0  0  0  0
    4.7967   -5.4337   -0.1785 H   0  0  0  0  0  0  0  0  0  0  0  0
    3.4593   -5.9083   -1.2501 H   0  0  0  0  0  0  0  0  0  0  0  0
    3.2553   -3.7035   -1.6056 H   0  0  0  0  0  0  0  0  0  0  0  0
   -0.5219   -3.8557    0.7320 H   0  0  0  0  0  0  0  0  0  0  0  0
   -1.5141   -3.2725   -2.1176 H   0  0  0  0  0  0  0  0  0  0  0  0
   -0.9755   -4.8712   -1.4810 H   0  0  0  0  0  0  0  0  0  0  0  0
   -2.4324   -4.0958   -0.7888 H   0  0  0  0  0  0  0  0  0  0  0  0
   -0.7985   -1.0816   -0.5477 H   0  0  0  0  0  0  0  0  0  0  0  0
   -2.5824    0.1488   -0.0909 H   0  0  0  0  0  0  0  0  0  0  0  0
   -2.7302   -0.5592   -2.2866 H   0  0  0  0  0  0  0  0  0  0  0  0
   -3.5518   -2.0867   -1.8596 H   0  0  0  0  0  0  0  0  0  0  0  0
   -4.1077    1.5498   -2.6205 H   0  0  0  0  0  0  0  0  0  0  0  0
   -5.8472    1.5891   -2.1518 H   0  0  0  0  0  0  0  0  0  0  0  0
   -4.6077    1.4514   -0.8945 H   0  0  0  0  0  0  0  0  0  0  0  0
   -7.1439   -0.1969   -3.3325 H   0  0  0  0  0  0  0  0  0  0  0  0
   -6.0233    0.7703   -4.3948 H   0  0  0  0  0  0  0  0  0  0  0  0
   -6.5549   -0.8652   -4.8805 H   0  0  0  0  0  0  0  0  0  0  0  0
   -6.8177   -0.2967   -0.9849 H   0  0  0  0  0  0  0  0  0  0  0  0
   -7.4062   -2.3692   -1.2700 H   0  0  0  0  0  0  0  0  0  0  0  0
   -5.0502   -2.4455    0.3076 H   0  0  0  0  0  0  0  0  0  0  0  0
   -7.3230   -1.9841    1.1711 H   0  0  0  0  0  0  0  0  0  0  0  0
   -6.0488   -1.5580    2.3716 H   0  0  0  0  0  0  0  0  0  0  0  0
   -6.8793   -0.2506    1.4480 H   0  0  0  0  0  0  0  0  0  0  0  0
    0.5109   -1.7960    1.6278 H   0  0  0  0  0  0  0  0  0  0  0  0
   -2.2921   -1.6127    2.8506 H   0  0  0  0  0  0  0  0  0  0  0  0
   -0.7801   -1.6016    3.7992 H   0  0  0  0  0  0  0  0  0  0  0  0
   -1.1908   -3.0371    2.8068 H   0  0  0  0  0  0  0  0  0  0  0  0
   -0.2654    0.6561    0.7767 H   0  0  0  0  0  0  0  0  0  0  0  0
   -0.6834    2.6582    1.8114 H   0  0  0  0  0  0  0  0  0  0  0  0
   -0.5631    4.4266    3.3722 H   0  0  0  0  0  0  0  0  0  0  0  0
   -1.8995    5.8057    4.9588 H   0  0  0  0  0  0  0  0  0  0  0  0
   -3.0226    4.4055    5.2133 H   0  0  0  0  0  0  0  0  0  0  0  0
   -1.2926    4.2770    5.6918 H   0  0  0  0  0  0  0  0  0  0  0  0
   -2.9359    5.7829    2.7622 H   0  0  0  0  0  0  0  0  0  0  0  0
   -1.8377    5.0912    1.6022 H   0  0  0  0  0  0  0  0  0  0  0  0
   -4.0749    4.3005    1.0342 H   0  0  0  0  0  0  0  0  0  0  0  0
   -3.4876    1.6784    1.4302 H   0  0  0  0  0  0  0  0  0  0  0  0
   -1.8509    3.4910   -0.0129 H   0  0  0  0  0  0  0  0  0  0  0  0
   -6.2016    4.5044    4.0202 H   0  0  0  0  0  0  0  0  0  0  0  0
   -5.7877    5.2494    2.4246 H   0  0  0  0  0  0  0  0  0  0  0  0
   -4.7370    5.4511    3.8914 H   0  0  0  0  0  0  0  0  0  0  0  0
   -6.5497    2.5522    3.0554 H   0  0  0  0  0  0  0  0  0  0  0  0
   -5.1992    1.4888    2.7137 H   0  0  0  0  0  0  0  0  0  0  0  0
   -5.8165    2.6080    1.4130 H   0  0  0  0  0  0  0  0  0  0  0  0
    2.8194   -0.0857    3.6621 H   0  0  0  0  0  0  0  0  0  0  0  0
    1.3981   -1.1425    3.7666 H   0  0  0  0  0  0  0  0  0  0  0  0
    2.3508   -1.0388    2.2395 H   0  0  0  0  0  0  0  0  0  0  0  0
    1.4658    1.7807    4.1951 H   0  0  0  0  0  0  0  0  0  0  0  0
    2.9687    1.7666    2.2407 H   0  0  0  0  0  0  0  0  0  0  0  0
    1.5705    2.6985    1.8333 H   0  0  0  0  0  0  0  0  0  0  0  0
    1.6675    0.3923   -0.0095 H   0  0  0  0  0  0  0  0  0  0  0  0
    2.1080    3.3720   -0.5526 H   0  0  0  0  0  0  0  0  0  0  0  0
    1.5122    2.1179   -1.7097 H   0  0  0  0  0  0  0  0  0  0  0  0
    0.4967    2.5979   -0.3291 H   0  0  0  0  0  0  0  0  0  0  0  0
    4.2438    2.0344    0.2159 H   0  0  0  0  0  0  0  0  0  0  0  0
    4.8737    1.2832   -1.8806 H   0  0  0  0  0  0  0  0  0  0  0  0
    2.2924   -0.2281   -2.0980 H   0  0  0  0  0  0  0  0  0  0  0  0
    3.1131   -0.9837   -4.2096 H   0  0  0  0  0  0  0  0  0  0  0  0
    3.0772    0.8301   -4.1675 H   0  0  0  0  0  0  0  0  0  0  0  0
    4.6775    0.9320   -5.8864 H   0  0  0  0  0  0  0  0  0  0  0  0
    4.7070   -0.8799   -5.9631 H   0  0  0  0  0  0  0  0  0  0  0  0
    6.7979    0.0417   -6.8895 H   0  0  0  0  0  0  0  0  0  0  0  0
    7.0956   -0.9012   -5.4083 H   0  0  0  0  0  0  0  0  0  0  0  0
    8.0888    2.0103   -6.8194 H   0  0  0  0  0  0  0  0  0  0  0  0
    6.3976    2.5453   -6.3814 H   0  0  0  0  0  0  0  0  0  0  0  0
    7.8058    3.0844   -5.4113 H   0  0  0  0  0  0  0  0  0  0  0  0
    2.7485   -1.3800   -0.1478 H   0  0  0  0  0  0  0  0  0  0  0  0
    4.1699   -0.1805    1.4902 H   0  0  0  0  0  0  0  0  0  0  0  0
    6.2869   -0.2359   -0.7240 H   0  0  0  0  0  0  0  0  0  0  0  0
    6.4206   -0.7368    1.0055 H   0  0  0  0  0  0  0  0  0  0  0  0
    6.2740    0.9844    0.6027 H   0  0  0  0  0  0  0  0  0  0  0  0
    4.8515   -3.9566    1.8905 H   0  0  0  0  0  0  0  0  0  0  0  0
    3.3323   -3.0254    2.0853 H   0  0  0  0  0  0  0  0  0  0  0  0
    4.9381   -2.2053    2.1284 H   0  0  0  0  0  0  0  0  0  0  0  0
    6.2640   -2.7938    0.1359 H   0  0  0  0  0  0  0  0  0  0  0  0
  1  2  1  0
  2  3  1  0
  3  4  1  0
  4  5  1  0
  5  6  2  0
  5  7  1  0
  7  8  1  0
  7  9  1  0
  9 10  1  0
 10 11  1  0
 11 12  1  0
 12 13  1  0
 13 14  1  0
 13 15  1  6
 15 16  1  0
 13 17  1  0
 17 18  1  0
 17 19  1  0
 19 20  1  0
 19 21  1  0
  9 22  1  0
 22 23  1  0
 22 24  1  0
 24 25  1  0
 25 26  1  0
 26 27  1  0
 27 28  1  0
 28 29  1  0
 28 30  1  0
 30 31  1  0
 31 32  1  0
 32 33  1  0
 31 34  1  0
 34 35  1  0
 34 36  1  0
 24 37  1  0
 37 38  1  0
 37 39  1  1
 37 40  1  0
 40 41  1  0
 41 42  1  0
 41 43  1  0
 43 44  1  0
 44 45  1  0
 45 46  1  0
 46 47  1  0
 47 48  1  0
 48 49  1  0
 49 50  1  0
 50 51  1  0
 45 52  1  0
 52 53  1  0
 53 54  1  0
 54 55  1  0
 53 56  1  0
 56 57  1  0
 56 58  1  6
 56  3  1  0
 21 11  1  0
 32 26  1  0
 54 43  1  0
  1 59  1  0
  1 60  1  0
  1 61  1  0
  2 62  1  0
  2 63  1  0
  3 64  1  6
  7 65  1  1
  8 66  1  0
  8 67  1  0
  8 68  1  0
  9 69  1  6
 11 70  1  6
 12 71  1  0
 12 72  1  0
 14 73  1  0
 14 74  1  0
 14 75  1  0
 16 76  1  0
 16 77  1  0
 16 78  1  0
 17 79  1  1
 18 80  1  0
 19 81  1  6
 20 82  1  0
 20 83  1  0
 20 84  1  0
 22 85  1  6
 23 86  1  0
 23 87  1  0
 23 88  1  0
 24 89  1  6
 26 90  1  6
 28 91  1  6
 29 92  1  0
 29 93  1  0
 29 94  1  0
 30 95  1  0
 30 96  1  0
 31 97  1  6
 32 98  1  6
 33 99  1  0
 35100  1  0
 35101  1  0
 35102  1  0
 36103  1  0
 36104  1  0
 36105  1  0
 38106  1  0
 38107  1  0
 38108  1  0
 39109  1  0
 40110  1  0
 40111  1  0
 41112  1  6
 42113  1  0
 42114  1  0
 42115  1  0
 43116  1  1
 44117  1  0
 45118  1  6
 46119  1  0
 46120  1  0
 48121  1  0
 48122  1  0
 49123  1  0
 49124  1  0
 51125  1  0
 51126  1  0
 51127  1  0
 53128  1  6
 54129  1  1
 55130  1  0
 55131  1  0
 55132  1  0
 57133  1  0
 57134  1  0
 57135  1  0
 58136  1  0
M  END
$$$$
