
     RDKit          3D

 57 59  0  0  0  0  0  0  0  0999 V2000
   -2.4054   -2.7373   -0.9682 C   0  0  0  0  0  0  0  0  0  0  0  0
   -3.2753   -1.6963   -0.2122 C   0  0  0  0  0  0  0  0  0  0  0  0
   -4.6815   -2.3163   -0.0033 C   0  0  0  0  0  0  0  0  0  0  0  0
   -3.2981   -0.2955   -0.8202 N   0  0  0  0  0  4  0  0  0  0  0  0
   -4.0867   -0.3408   -2.0933 C   0  0  0  0  0  0  0  0  0  0  0  0
   -1.9150    0.1533   -1.2273 C   0  0  0  0  0  0  0  0  0  0  0  0
   -0.8616    0.2535   -0.1083 C   0  0  0  0  0  0  0  0  0  0  0  0
    0.4324    0.3314   -0.6971 O   0  0  0  0  0  0  0  0  0  0  0  0
    1.6024    0.4224    0.0617 C   0  0  0  0  0  0  0  0  0  0  0  0
    1.5494    0.4516    1.3228 O   0  0  0  0  0  0  0  0  0  0  0  0
    2.9315    0.4630   -0.6380 C   0  0  0  0  0  0  0  0  0  0  0  0
    3.6755    1.7238   -0.2479 C   0  0  0  0  0  0  0  0  0  0  0  0
    3.1974    2.9777   -0.6672 C   0  0  0  0  0  0  0  0  0  0  0  0
    3.8389    4.1504   -0.2589 C   0  0  0  0  0  0  0  0  0  0  0  0
    4.9581    4.0827    0.5742 C   0  0  0  0  0  0  0  0  0  0  0  0
    5.4436    2.8417    0.9942 C   0  0  0  0  0  0  0  0  0  0  0  0
    4.8132    1.6627    0.5811 C   0  0  0  0  0  0  0  0  0  0  0  0
    5.3350    0.4312    0.9823 O   0  0  0  0  0  0  0  0  0  0  0  0
    4.8356   -0.7801    0.4996 C   0  0  0  0  0  0  0  0  0  0  0  0
    5.4875   -1.9723    0.8339 C   0  0  0  0  0  0  0  0  0  0  0  0
    5.0244   -3.1913    0.3322 C   0  0  0  0  0  0  0  0  0  0  0  0
    3.9063   -3.2240   -0.5044 C   0  0  0  0  0  0  0  0  0  0  0  0
    3.2436   -2.0386   -0.8347 C   0  0  0  0  0  0  0  0  0  0  0  0
    3.6989   -0.8067   -0.3327 C   0  0  0  0  0  0  0  0  0  0  0  0
   -3.9913    0.7110    0.1012 C   0  0  0  0  0  0  0  0  0  0  0  0
   -3.8038    2.1984   -0.2965 C   0  0  0  0  0  0  0  0  0  0  0  0
   -3.6966    0.5633    1.6186 C   0  0  0  0  0  0  0  0  0  0  0  0
   -2.7328   -2.8868   -2.0151 H   0  0  0  0  0  0  0  0  0  0  0  0
   -2.4762   -3.7237   -0.4609 H   0  0  0  0  0  0  0  0  0  0  0  0
   -1.3296   -2.4708   -0.9488 H   0  0  0  0  0  0  0  0  0  0  0  0
   -2.8171   -1.6596    0.7955 H   0  0  0  0  0  0  0  0  0  0  0  0
   -5.1214   -2.6484   -0.9674 H   0  0  0  0  0  0  0  0  0  0  0  0
   -5.3856   -1.6196    0.4889 H   0  0  0  0  0  0  0  0  0  0  0  0
   -4.6025   -3.2112    0.6508 H   0  0  0  0  0  0  0  0  0  0  0  0
   -5.1651   -0.5424   -1.9179 H   0  0  0  0  0  0  0  0  0  0  0  0
   -4.0338    0.6158   -2.6536 H   0  0  0  0  0  0  0  0  0  0  0  0
   -3.7097   -1.1107   -2.7956 H   0  0  0  0  0  0  0  0  0  0  0  0
   -1.5092   -0.5168   -2.0175 H   0  0  0  0  0  0  0  0  0  0  0  0
   -1.9456    1.1390   -1.7406 H   0  0  0  0  0  0  0  0  0  0  0  0
   -0.8865   -0.6265    0.5627 H   0  0  0  0  0  0  0  0  0  0  0  0
   -1.0228    1.1753    0.4850 H   0  0  0  0  0  0  0  0  0  0  0  0
    2.7568    0.4988   -1.7364 H   0  0  0  0  0  0  0  0  0  0  0  0
    2.3209    3.0446   -1.3001 H   0  0  0  0  0  0  0  0  0  0  0  0
    3.4638    5.1126   -0.5829 H   0  0  0  0  0  0  0  0  0  0  0  0
    5.4513    4.9921    0.8922 H   0  0  0  0  0  0  0  0  0  0  0  0
    6.3165    2.7944    1.6327 H   0  0  0  0  0  0  0  0  0  0  0  0
    6.3596   -1.9517    1.4750 H   0  0  0  0  0  0  0  0  0  0  0  0
    5.5341   -4.1108    0.5897 H   0  0  0  0  0  0  0  0  0  0  0  0
    3.5485   -4.1692   -0.8917 H   0  0  0  0  0  0  0  0  0  0  0  0
    2.3680   -2.0796   -1.4711 H   0  0  0  0  0  0  0  0  0  0  0  0
   -5.0927    0.5602    0.0351 H   0  0  0  0  0  0  0  0  0  0  0  0
   -4.5018    2.8343    0.2897 H   0  0  0  0  0  0  0  0  0  0  0  0
   -4.0368    2.3814   -1.3626 H   0  0  0  0  0  0  0  0  0  0  0  0
   -2.7773    2.5558   -0.0795 H   0  0  0  0  0  0  0  0  0  0  0  0
   -2.6197    0.5427    1.8542 H   0  0  0  0  0  0  0  0  0  0  0  0
   -4.1687   -0.3489    2.0357 H   0  0  0  0  0  0  0  0  0  0  0  0
   -4.1428    1.4107    2.1821 H   0  0  0  0  0  0  0  0  0  0  0  0
  1  2  1  0
  2  3  1  0
  2  4  1  0
  4  5  1  0
  4  6  1  0
  6  7  1  0
  7  8  1  0
  8  9  1  0
  9 10  2  0
  9 11  1  0
 11 12  1  0
 12 13  2  0
 13 14  1  0
 14 15  2  0
 15 16  1  0
 16 17  2  0
 17 18  1  0
 18 19  1  0
 19 20  2  0
 20 21  1  0
 21 22  2  0
 22 23  1  0
 23 24  2  0
  4 25  1  0
 25 26  1  0
 25 27  1  0
 24 11  1  0
 17 12  1  0
 24 19  1  0
  1 28  1  0
  1 29  1  0
  1 30  1  0
  2 31  1  0
  3 32  1  0
  3 33  1  0
  3 34  1  0
  5 35  1  0
  5 36  1  0
  5 37  1  0
  6 38  1  0
  6 39  1  0
  7 40  1  0
  7 41  1  0
 11 42  1  0
 13 43  1  0
 14 44  1  0
 15 45  1  0
 16 46  1  0
 20 47  1  0
 21 48  1  0
 22 49  1  0
 23 50  1  0
 25 51  1  0
 26 52  1  0
 26 53  1  0
 26 54  1  0
 27 55  1  0
 27 56  1  0
 27 57  1  0
M  CHG  1   4   1
M  END
$$$$
