
     RDKit          3D

 23 23  0  0  0  0  0  0  0  0999 V2000
   -2.0716    1.7920   -0.4518 N   0  0  0  0  0  0  0  0  0  0  0  0
   -2.5295    0.4534   -0.0881 C   0  0  0  0  0  0  0  0  0  0  0  0
   -1.5730   -0.6193   -0.6446 C   0  0  2  0  0  0  0  0  0  0  0  0
   -2.0610   -1.9142   -0.3930 O   0  0  0  0  0  0  0  0  0  0  0  0
   -0.1647   -0.4643   -0.1002 C   0  0  0  0  0  0  0  0  0  0  0  0
    0.8923   -0.1310   -0.9654 C   0  0  0  0  0  0  0  0  0  0  0  0
    2.1968    0.0234   -0.4738 C   0  0  0  0  0  0  0  0  0  0  0  0
    3.2375    0.3529   -1.3409 O   0  0  0  0  0  0  0  0  0  0  0  0
    2.4523   -0.1542    0.8959 C   0  0  0  0  0  0  0  0  0  0  0  0
    3.7382   -0.0078    1.4151 O   0  0  0  0  0  0  0  0  0  0  0  0
    1.4037   -0.4824    1.7600 C   0  0  0  0  0  0  0  0  0  0  0  0
    0.1047   -0.6358    1.2695 C   0  0  0  0  0  0  0  0  0  0  0  0
   -2.7154    2.4820   -0.0013 H   0  0  0  0  0  0  0  0  0  0  0  0
   -2.1872    1.9084   -1.4849 H   0  0  0  0  0  0  0  0  0  0  0  0
   -3.5505    0.2842   -0.4980 H   0  0  0  0  0  0  0  0  0  0  0  0
   -2.5911    0.3753    1.0193 H   0  0  0  0  0  0  0  0  0  0  0  0
   -1.5552   -0.4971   -1.7500 H   0  0  0  0  0  0  0  0  0  0  0  0
   -2.2499   -1.9910    0.5782 H   0  0  0  0  0  0  0  0  0  0  0  0
    0.7053    0.0112   -2.0227 H   0  0  0  0  0  0  0  0  0  0  0  0
    3.0800    0.4868   -2.3330 H   0  0  0  0  0  0  0  0  0  0  0  0
    4.5307    0.2294    0.8305 H   0  0  0  0  0  0  0  0  0  0  0  0
    1.5963   -0.6177    2.8168 H   0  0  0  0  0  0  0  0  0  0  0  0
   -0.6887   -0.8843    1.9623 H   0  0  0  0  0  0  0  0  0  0  0  0
  1  2  1  0
  2  3  1  0
  3  4  1  0
  3  5  1  0
  5  6  2  0
  6  7  1  0
  7  8  1  0
  7  9  2  0
  9 10  1  0
  9 11  1  0
 11 12  2  0
 12  5  1  0
  1 13  1  0
  1 14  1  0
  2 15  1  0
  2 16  1  0
  3 17  1  6
  4 18  1  0
  6 19  1  0
  8 20  1  0
 10 21  1  0
 11 22  1  0
 12 23  1  0
M  END
$$$$
