
     RDKit          3D

111119  0  0  0  0  0  0  0  0999 V2000
    2.9741    1.5433   -1.1431 C   0  0  2  0  0  0  0  0  0  0  0  0
    2.3153    2.5930   -0.3545 N   0  0  0  0  0  0  0  0  0  0  0  0
    2.7555    3.9811   -0.2436 C   0  0  0  0  0  0  0  0  0  0  0  0
    1.1260    2.0610    0.1998 C   0  0  0  0  0  0  0  0  0  0  0  0
    0.3784    2.6077    1.2376 C   0  0  0  0  0  0  0  0  0  0  0  0
   -0.7402    1.8954    1.7245 C   0  0  0  0  0  0  0  0  0  0  0  0
   -1.4353    2.3381    2.8613 O   0  0  0  0  0  0  0  0  0  0  0  0
   -1.1277    3.5183    3.5953 C   0  0  0  0  0  0  0  0  0  0  0  0
   -1.1541    0.6902    1.0750 C   0  0  0  0  0  0  0  0  0  0  0  0
   -0.3064    0.1425    0.0748 C   0  0  0  0  0  0  0  0  0  0  0  0
    0.8349    0.8378   -0.3290 C   0  0  0  0  0  0  0  0  0  0  0  0
    1.8101    0.5191   -1.4450 C   0  0  1  0  0  0  0  0  0  0  0  0
    1.1242    0.8537   -2.7789 C   0  0  0  0  0  0  0  0  0  0  0  0
    0.5715   -0.4639   -3.2592 C   0  0  0  0  0  0  0  0  0  0  0  0
    1.5158   -1.5020   -2.8313 N   0  0  0  0  0  0  0  0  0  0  0  0
    2.4300   -1.9003   -3.9386 C   0  0  0  0  0  0  0  0  0  0  0  0
    3.7231   -1.1392   -3.9349 C   0  0  0  0  0  0  0  0  0  0  0  0
    4.3474   -0.9171   -2.7790 C   0  0  0  0  0  0  0  0  0  0  0  0
    3.6848   -1.3333   -1.4781 C   0  0  2  0  0  0  0  0  0  0  0  0
    3.8410   -2.8835   -1.2259 C   0  0  0  0  0  0  0  0  0  0  0  0
    5.1357   -3.5183   -1.7546 C   0  0  0  0  0  0  0  0  0  0  0  0
    2.1605   -0.9980   -1.5771 C   0  0  1  0  0  0  0  0  0  0  0  0
    4.2728   -0.5703   -0.2571 C   0  0  1  0  0  0  0  0  0  0  0  0
    5.6172   -1.0062   -0.0191 O   0  0  0  0  0  0  0  0  0  0  0  0
    6.1847   -1.1672    1.2503 C   0  0  0  0  0  0  0  0  0  0  0  0
    7.6166   -1.5632    1.3628 C   0  0  0  0  0  0  0  0  0  0  0  0
    5.4900   -1.0401    2.2946 O   0  0  0  0  0  0  0  0  0  0  0  0
    4.2478    0.9840   -0.3785 C   0  0  1  0  0  0  0  0  0  0  0  0
    5.3995    1.3713   -1.0987 O   0  0  0  0  0  0  0  0  0  0  0  0
    4.3726    1.5415    1.0390 C   0  0  0  0  0  0  0  0  0  0  0  0
    3.4988    1.2645    1.9081 O   0  0  0  0  0  0  0  0  0  0  0  0
    5.4613    2.3523    1.3789 O   0  0  0  0  0  0  0  0  0  0  0  0
    5.6326    2.8977    2.6808 C   0  0  0  0  0  0  0  0  0  0  0  0
   -2.3788   -0.1013    1.5801 C   0  0  1  0  0  0  0  0  0  0  0  0
   -3.6606    0.7766    1.8753 C   0  0  0  0  0  0  0  0  0  0  0  0
   -3.9831    2.0729    1.0652 C   0  0  1  0  0  0  0  0  0  0  0  0
   -3.5206    2.1362   -0.3924 C   0  0  0  0  0  0  0  0  0  0  0  0
   -4.1797    1.1199   -1.2307 N   0  0  0  0  0  0  0  0  0  0  0  0
   -5.5636    0.7154   -0.8596 C   0  0  0  0  0  0  0  0  0  0  0  0
   -6.2255    1.6783    0.1131 C   0  0  0  0  0  0  0  0  0  0  0  0
   -7.7163    1.9105    0.0596 C   0  0  0  0  0  0  0  0  0  0  0  0
   -8.4204    1.2300    1.2303 C   0  0  0  0  0  0  0  0  0  0  0  0
   -5.4738    2.2915    1.0479 C   0  0  0  0  0  0  0  0  0  0  0  0
   -3.2838    0.0322   -1.6604 C   0  0  0  0  0  0  0  0  0  0  0  0
   -3.2359   -1.1557   -0.7224 C   0  0  0  0  0  0  0  0  0  0  0  0
   -2.8038   -1.2452    0.6256 C   0  0  0  0  0  0  0  0  0  0  0  0
   -2.8842   -2.5455    1.0276 N   0  0  0  0  0  0  0  0  0  0  0  0
   -3.3322   -3.2565   -0.0138 C   0  0  0  0  0  0  0  0  0  0  0  0
   -3.5583   -4.6324   -0.0509 C   0  0  0  0  0  0  0  0  0  0  0  0
   -4.0305   -5.1906   -1.2503 C   0  0  0  0  0  0  0  0  0  0  0  0
   -4.2644   -4.3698   -2.3727 C   0  0  0  0  0  0  0  0  0  0  0  0
   -4.0279   -2.9853   -2.3042 C   0  0  0  0  0  0  0  0  0  0  0  0
   -3.5570   -2.4547   -1.0964 C   0  0  0  0  0  0  0  0  0  0  0  0
   -1.9207   -0.7364    2.8952 C   0  0  0  0  0  0  0  0  0  0  0  0
   -2.7571   -1.0048    3.8040 O   0  0  0  0  0  0  0  0  0  0  0  0
   -0.5821   -1.1202    3.0526 O   0  0  0  0  0  0  0  0  0  0  0  0
   -0.0959   -1.7507    4.2305 C   0  0  0  0  0  0  0  0  0  0  0  0
    3.3191    1.9942   -2.0998 H   0  0  0  0  0  0  0  0  0  0  0  0
    1.9589    4.6559   -0.6204 H   0  0  0  0  0  0  0  0  0  0  0  0
    3.6760    4.1444   -0.8414 H   0  0  0  0  0  0  0  0  0  0  0  0
    2.9712    4.2222    0.8181 H   0  0  0  0  0  0  0  0  0  0  0  0
    0.6922    3.5407    1.6833 H   0  0  0  0  0  0  0  0  0  0  0  0
   -1.8425    3.6160    4.4377 H   0  0  0  0  0  0  0  0  0  0  0  0
   -0.0986    3.4546    4.0076 H   0  0  0  0  0  0  0  0  0  0  0  0
   -1.2261    4.4104    2.9414 H   0  0  0  0  0  0  0  0  0  0  0  0
   -0.5168   -0.8122   -0.3815 H   0  0  0  0  0  0  0  0  0  0  0  0
    1.8584    1.2037   -3.5370 H   0  0  0  0  0  0  0  0  0  0  0  0
    0.3213    1.6202   -2.6916 H   0  0  0  0  0  0  0  0  0  0  0  0
   -0.4081   -0.6609   -2.7790 H   0  0  0  0  0  0  0  0  0  0  0  0
    0.3878   -0.4388   -4.3558 H   0  0  0  0  0  0  0  0  0  0  0  0
    2.6614   -2.9797   -3.8394 H   0  0  0  0  0  0  0  0  0  0  0  0
    1.9536   -1.8119   -4.9387 H   0  0  0  0  0  0  0  0  0  0  0  0
    4.1626   -0.8020   -4.8685 H   0  0  0  0  0  0  0  0  0  0  0  0
    5.3102   -0.4191   -2.7883 H   0  0  0  0  0  0  0  0  0  0  0  0
    2.9964   -3.4499   -1.6695 H   0  0  0  0  0  0  0  0  0  0  0  0
    3.7732   -3.0998   -0.1368 H   0  0  0  0  0  0  0  0  0  0  0  0
    6.0356   -2.9920   -1.3811 H   0  0  0  0  0  0  0  0  0  0  0  0
    5.1895   -4.5754   -1.4190 H   0  0  0  0  0  0  0  0  0  0  0  0
    5.1464   -3.5137   -2.8645 H   0  0  0  0  0  0  0  0  0  0  0  0
    1.6759   -1.5361   -0.7323 H   0  0  0  0  0  0  0  0  0  0  0  0
    3.6385   -0.8726    0.6091 H   0  0  0  0  0  0  0  0  0  0  0  0
    8.1741   -1.2227    0.4652 H   0  0  0  0  0  0  0  0  0  0  0  0
    8.0713   -1.1009    2.2643 H   0  0  0  0  0  0  0  0  0  0  0  0
    7.6890   -2.6680    1.4392 H   0  0  0  0  0  0  0  0  0  0  0  0
    5.4068    2.3622   -1.1717 H   0  0  0  0  0  0  0  0  0  0  0  0
    5.7183    2.0793    3.4267 H   0  0  0  0  0  0  0  0  0  0  0  0
    4.7705    3.5501    2.9355 H   0  0  0  0  0  0  0  0  0  0  0  0
    6.5615    3.5034    2.7028 H   0  0  0  0  0  0  0  0  0  0  0  0
   -4.5435    0.0970    1.8537 H   0  0  0  0  0  0  0  0  0  0  0  0
   -3.6425    1.1150    2.9352 H   0  0  0  0  0  0  0  0  0  0  0  0
   -3.5277    2.9399    1.5901 H   0  0  0  0  0  0  0  0  0  0  0  0
   -2.4214    2.1359   -0.4936 H   0  0  0  0  0  0  0  0  0  0  0  0
   -3.8049    3.1329   -0.7975 H   0  0  0  0  0  0  0  0  0  0  0  0
   -5.5852   -0.2866   -0.3849 H   0  0  0  0  0  0  0  0  0  0  0  0
   -6.1653    0.6449   -1.7898 H   0  0  0  0  0  0  0  0  0  0  0  0
   -7.9271    3.0018    0.0782 H   0  0  0  0  0  0  0  0  0  0  0  0
   -8.1359    1.5060   -0.8862 H   0  0  0  0  0  0  0  0  0  0  0  0
   -9.5163    1.3879    1.1473 H   0  0  0  0  0  0  0  0  0  0  0  0
   -8.0744    1.6569    2.1955 H   0  0  0  0  0  0  0  0  0  0  0  0
   -8.2158    0.1379    1.2184 H   0  0  0  0  0  0  0  0  0  0  0  0
   -5.9210    2.9907    1.7491 H   0  0  0  0  0  0  0  0  0  0  0  0
   -2.2557    0.4063   -1.8326 H   0  0  0  0  0  0  0  0  0  0  0  0
   -3.6200   -0.2891   -2.6648 H   0  0  0  0  0  0  0  0  0  0  0  0
   -2.6543   -2.9500    1.9620 H   0  0  0  0  0  0  0  0  0  0  0  0
   -3.3748   -5.2531    0.8166 H   0  0  0  0  0  0  0  0  0  0  0  0
   -4.2158   -6.2550   -1.3127 H   0  0  0  0  0  0  0  0  0  0  0  0
   -4.6293   -4.8081   -3.2926 H   0  0  0  0  0  0  0  0  0  0  0  0
   -4.2151   -2.3665   -3.1699 H   0  0  0  0  0  0  0  0  0  0  0  0
    0.9895   -1.9483    4.1157 H   0  0  0  0  0  0  0  0  0  0  0  0
   -0.6230   -2.7152    4.3900 H   0  0  0  0  0  0  0  0  0  0  0  0
   -0.2508   -1.0873    5.1076 H   0  0  0  0  0  0  0  0  0  0  0  0
  1  2  1  0
  2  3  1  0
  2  4  1  0
  4  5  2  0
  5  6  1  0
  6  7  1  0
  7  8  1  0
  6  9  2  0
  9 10  1  0
 10 11  2  0
 11 12  1  0
 12 13  1  6
 13 14  1  0
 14 15  1  0
 15 16  1  0
 16 17  1  0
 17 18  2  0
 18 19  1  0
 19 20  1  1
 20 21  1  0
 19 22  1  0
 19 23  1  0
 23 24  1  0
 24 25  1  0
 25 26  1  0
 25 27  2  0
 23 28  1  0
 28 29  1  6
 28 30  1  0
 30 31  2  0
 30 32  1  0
 32 33  1  0
  9 34  1  0
 34 35  1  0
 35 36  1  0
 36 37  1  0
 37 38  1  0
 38 39  1  0
 39 40  1  0
 40 41  1  0
 41 42  1  0
 40 43  2  0
 38 44  1  0
 44 45  1  0
 45 46  2  0
 46 47  1  0
 47 48  1  0
 48 49  2  0
 49 50  1  0
 50 51  2  0
 51 52  1  0
 52 53  2  0
 34 54  1  1
 54 55  2  0
 54 56  1  0
 56 57  1  0
 12  1  1  0
 22 12  1  0
 46 34  1  0
 53 48  1  0
 28  1  1  0
 43 36  1  0
 53 45  1  0
 11  4  1  0
 22 15  1  0
  1 58  1  6
  3 59  1  0
  3 60  1  0
  3 61  1  0
  5 62  1  0
  8 63  1  0
  8 64  1  0
  8 65  1  0
 10 66  1  0
 13 67  1  0
 13 68  1  0
 14 69  1  0
 14 70  1  0
 16 71  1  0
 16 72  1  0
 17 73  1  0
 18 74  1  0
 20 75  1  0
 20 76  1  0
 21 77  1  0
 21 78  1  0
 21 79  1  0
 22 80  1  1
 23 81  1  1
 26 82  1  0
 26 83  1  0
 26 84  1  0
 29 85  1  0
 33 86  1  0
 33 87  1  0
 33 88  1  0
 35 89  1  0
 35 90  1  0
 36 91  1  1
 37 92  1  0
 37 93  1  0
 39 94  1  0
 39 95  1  0
 41 96  1  0
 41 97  1  0
 42 98  1  0
 42 99  1  0
 42100  1  0
 43101  1  0
 44102  1  0
 44103  1  0
 47104  1  0
 49105  1  0
 50106  1  0
 51107  1  0
 52108  1  0
 57109  1  0
 57110  1  0
 57111  1  0
M  END
$$$$
