
     RDKit          3D

 31 31  0  0  0  0  0  0  0  0999 V2000
    6.2721    0.5894   -1.0763 Cl  0  0  0  0  0  0  0  0  0  0  0  0
    4.8592    0.3463   -0.0191 C   0  0  0  0  0  0  0  0  0  0  0  0
    3.8209   -0.5240   -0.7220 C   0  0  0  0  0  0  0  0  0  0  0  0
    2.6612   -0.7333    0.1454 N   0  0  0  0  0  0  0  0  0  0  0  0
    2.7376   -1.7471    1.1181 N   0  0  0  0  0  0  0  0  0  0  0  0
    1.9170   -1.8234    2.0559 O   0  0  0  0  0  0  0  0  0  0  0  0
    1.5294    0.1555    0.0704 C   0  0  0  0  0  0  0  0  0  0  0  0
    1.6962    1.3489   -0.3034 O   0  0  0  0  0  0  0  0  0  0  0  0
    0.2094   -0.3188    0.3766 N   0  0  0  0  0  0  0  0  0  0  0  0
   -0.9593    0.5660    0.3825 C   0  0  0  0  0  0  0  0  0  0  0  0
   -2.0219    0.0423    1.3821 C   0  0  0  0  0  0  0  0  0  0  0  0
   -3.0614   -0.8501    0.6950 C   0  0  0  0  0  0  0  0  0  0  0  0
   -3.8295   -0.0868   -0.4035 C   0  0  0  0  0  0  0  0  0  0  0  0
   -3.0030    1.0348   -1.0650 C   0  0  0  0  0  0  0  0  0  0  0  0
   -1.5058    0.7109   -1.0585 C   0  0  0  0  0  0  0  0  0  0  0  0
    4.4237    1.3372    0.2283 H   0  0  0  0  0  0  0  0  0  0  0  0
    5.1944   -0.1450    0.9189 H   0  0  0  0  0  0  0  0  0  0  0  0
    4.2737   -1.5075   -0.9752 H   0  0  0  0  0  0  0  0  0  0  0  0
    3.5077   -0.0439   -1.6753 H   0  0  0  0  0  0  0  0  0  0  0  0
    0.0507   -1.3508    0.4209 H   0  0  0  0  0  0  0  0  0  0  0  0
   -0.6489    1.5724    0.7437 H   0  0  0  0  0  0  0  0  0  0  0  0
   -1.5347   -0.5195    2.2090 H   0  0  0  0  0  0  0  0  0  0  0  0
   -2.5496    0.9056    1.8451 H   0  0  0  0  0  0  0  0  0  0  0  0
   -2.5449   -1.7271    0.2464 H   0  0  0  0  0  0  0  0  0  0  0  0
   -3.7798   -1.2350    1.4507 H   0  0  0  0  0  0  0  0  0  0  0  0
   -4.1528   -0.8136   -1.1803 H   0  0  0  0  0  0  0  0  0  0  0  0
   -4.7491    0.3606    0.0328 H   0  0  0  0  0  0  0  0  0  0  0  0
   -3.3481    1.1825   -2.1111 H   0  0  0  0  0  0  0  0  0  0  0  0
   -3.1676    1.9899   -0.5189 H   0  0  0  0  0  0  0  0  0  0  0  0
   -1.3463   -0.2326   -1.6270 H   0  0  0  0  0  0  0  0  0  0  0  0
   -0.9507    1.5165   -1.5862 H   0  0  0  0  0  0  0  0  0  0  0  0
  1  2  1  0
  2  3  1  0
  3  4  1  0
  4  5  1  0
  5  6  2  0
  4  7  1  0
  7  8  2  0
  7  9  1  0
  9 10  1  0
 10 11  1  0
 11 12  1  0
 12 13  1  0
 13 14  1  0
 14 15  1  0
 15 10  1  0
  2 16  1  0
  2 17  1  0
  3 18  1  0
  3 19  1  0
  9 20  1  0
 10 21  1  0
 11 22  1  0
 11 23  1  0
 12 24  1  0
 12 25  1  0
 13 26  1  0
 13 27  1  0
 14 28  1  0
 14 29  1  0
 15 30  1  0
 15 31  1  0
M  END
$$$$
