
     RDKit          3D

 45 48  0  0  0  0  0  0  0  0999 V2000
    7.1397   -0.9262    0.6566 O   0  0  0  0  0  0  0  0  0  0  0  0
    6.4992    0.0340   -0.1515 C   0  0  0  0  0  0  0  0  0  0  0  0
    7.1820    1.2629   -0.0623 O   0  0  0  0  0  0  0  0  0  0  0  0
    5.0522    0.2015    0.2686 C   0  0  0  0  0  0  0  0  0  0  0  0
    4.2226   -0.8009    0.7640 C   0  0  0  0  0  0  0  0  0  0  0  0
    2.9104   -0.3738    0.9997 C   0  0  0  0  0  0  0  0  0  0  0  0
    2.6941    0.9598    0.6635 C   0  0  0  0  0  0  0  0  0  0  0  0
    4.1403    1.6079    0.0970 S   0  0  0  0  0  0  0  0  0  0  0  0
    1.4381    1.7164    0.8201 C   0  0  0  0  0  0  0  0  0  0  0  0
    1.4891    2.9752    0.8596 O   0  0  0  0  0  0  0  0  0  0  0  0
    0.1634    1.0577    0.9343 N   0  0  0  0  0  0  0  0  0  0  0  0
   -0.1619   -0.1036    0.0890 C   0  0  0  0  0  0  0  0  0  0  0  0
   -1.5543    0.0636   -0.5253 C   0  0  0  0  0  0  0  0  0  0  0  0
   -2.5070    0.4600    0.5105 N   0  0  0  0  0  0  0  0  0  0  0  0
   -2.1811    1.1065    1.6448 C   0  0  0  0  0  0  0  0  0  0  0  0
   -0.7734    1.4938    1.9837 C   0  0  0  0  0  0  0  0  0  0  0  0
   -3.2405    1.3350    2.4487 N   0  0  0  0  0  0  0  0  0  0  0  0
   -4.2836    0.8082    1.7727 C   0  0  0  0  0  0  0  0  0  0  0  0
   -3.8418    0.2807    0.5732 C   0  0  0  0  0  0  0  0  0  0  0  0
   -4.6877   -0.3866   -0.4415 C   0  0  0  0  0  0  0  0  0  0  0  0
   -4.4959   -0.1478   -1.8136 C   0  0  0  0  0  0  0  0  0  0  0  0
   -5.3107   -0.7761   -2.7605 C   0  0  0  0  0  0  0  0  0  0  0  0
   -6.3284   -1.6392   -2.3474 C   0  0  0  0  0  0  0  0  0  0  0  0
   -6.5378   -1.8701   -0.9857 C   0  0  0  0  0  0  0  0  0  0  0  0
   -5.7259   -1.2433   -0.0354 C   0  0  0  0  0  0  0  0  0  0  0  0
    6.5581   -0.4453   -1.6093 C   0  0  0  0  0  0  0  0  0  0  0  0
    7.8775   -0.5961   -1.9987 F   0  0  0  0  0  0  0  0  0  0  0  0
    5.9522    0.4776   -2.4450 F   0  0  0  0  0  0  0  0  0  0  0  0
    5.9147   -1.6641   -1.7428 F   0  0  0  0  0  0  0  0  0  0  0  0
    7.0970   -0.6090    1.5968 H   0  0  0  0  0  0  0  0  0  0  0  0
    7.1527    1.5584    0.8855 H   0  0  0  0  0  0  0  0  0  0  0  0
    4.5551   -1.8130    0.9537 H   0  0  0  0  0  0  0  0  0  0  0  0
    2.1538   -1.0220    1.4187 H   0  0  0  0  0  0  0  0  0  0  0  0
    0.5785   -0.2203   -0.7323 H   0  0  0  0  0  0  0  0  0  0  0  0
   -0.1481   -1.0239    0.7116 H   0  0  0  0  0  0  0  0  0  0  0  0
   -1.8658   -0.8970   -0.9890 H   0  0  0  0  0  0  0  0  0  0  0  0
   -1.5152    0.8524   -1.3067 H   0  0  0  0  0  0  0  0  0  0  0  0
   -0.4837    1.0288    2.9496 H   0  0  0  0  0  0  0  0  0  0  0  0
   -0.7405    2.5986    2.0952 H   0  0  0  0  0  0  0  0  0  0  0  0
   -5.3048    0.8210    2.1300 H   0  0  0  0  0  0  0  0  0  0  0  0
   -3.7371    0.5427   -2.1549 H   0  0  0  0  0  0  0  0  0  0  0  0
   -5.1580   -0.5872   -3.8153 H   0  0  0  0  0  0  0  0  0  0  0  0
   -6.9587   -2.1238   -3.0818 H   0  0  0  0  0  0  0  0  0  0  0  0
   -7.3297   -2.5351   -0.6660 H   0  0  0  0  0  0  0  0  0  0  0  0
   -5.8990   -1.4383    1.0157 H   0  0  0  0  0  0  0  0  0  0  0  0
  1  2  1  0
  2  3  1  0
  2  4  1  0
  4  5  2  0
  5  6  1  0
  6  7  2  0
  7  8  1  0
  7  9  1  0
  9 10  2  0
  9 11  1  0
 11 12  1  0
 12 13  1  0
 13 14  1  0
 14 15  1  0
 15 16  1  0
 15 17  2  0
 17 18  1  0
 18 19  2  0
 19 20  1  0
 20 21  2  0
 21 22  1  0
 22 23  2  0
 23 24  1  0
 24 25  2  0
  2 26  1  0
 26 27  1  0
 26 28  1  0
 26 29  1  0
  8  4  1  0
 16 11  1  0
 25 20  1  0
 19 14  1  0
  1 30  1  0
  3 31  1  0
  5 32  1  0
  6 33  1  0
 12 34  1  0
 12 35  1  0
 13 36  1  0
 13 37  1  0
 16 38  1  0
 16 39  1  0
 18 40  1  0
 21 41  1  0
 22 42  1  0
 23 43  1  0
 24 44  1  0
 25 45  1  0
M  END
$$$$
