
     RDKit          3D

 28 28  0  0  0  0  0  0  0  0999 V2000
    4.0472    1.8702    1.0327 C   0  0  0  0  0  0  0  0  0  0  0  0
    4.0995    0.3700    0.7523 C   0  0  0  0  0  0  0  0  0  0  0  0
    2.8539   -0.1125    0.0099 C   0  0  0  0  0  0  0  0  0  0  0  0
    1.7006    0.0616    0.8304 O   0  0  0  0  0  0  0  0  0  0  0  0
    0.3934   -0.2791    0.4501 C   0  0  0  0  0  0  0  0  0  0  0  0
    0.1029   -0.8508   -0.8036 C   0  0  0  0  0  0  0  0  0  0  0  0
   -1.2128   -1.1762   -1.1440 C   0  0  0  0  0  0  0  0  0  0  0  0
   -2.2576   -0.9462   -0.2370 C   0  0  0  0  0  0  0  0  0  0  0  0
   -3.6768   -1.2658   -0.6174 C   0  0  0  0  0  0  0  0  0  0  0  0
   -4.3122   -0.0808   -1.2704 C   0  0  0  0  0  0  0  0  0  0  0  0
   -4.9323    0.8902   -0.4904 O   0  0  0  0  0  0  0  0  0  0  0  0
   -4.2513    0.0596   -2.5212 O   0  0  0  0  0  0  0  0  0  0  0  0
   -1.9719   -0.3649    1.0075 C   0  0  0  0  0  0  0  0  0  0  0  0
   -0.6554   -0.0380    1.3511 C   0  0  0  0  0  0  0  0  0  0  0  0
   -0.3318    0.6843    2.9200 Cl  0  0  0  0  0  0  0  0  0  0  0  0
    4.9783    2.1832    1.5503 H   0  0  0  0  0  0  0  0  0  0  0  0
    3.1818    2.1140    1.6850 H   0  0  0  0  0  0  0  0  0  0  0  0
    3.9618    2.4381    0.0818 H   0  0  0  0  0  0  0  0  0  0  0  0
    4.1957   -0.1817    1.7125 H   0  0  0  0  0  0  0  0  0  0  0  0
    4.9971    0.1497    0.1348 H   0  0  0  0  0  0  0  0  0  0  0  0
    2.9772   -1.1906   -0.2309 H   0  0  0  0  0  0  0  0  0  0  0  0
    2.7369    0.4590   -0.9368 H   0  0  0  0  0  0  0  0  0  0  0  0
    0.8857   -1.0454   -1.5237 H   0  0  0  0  0  0  0  0  0  0  0  0
   -1.4176   -1.6070   -2.1165 H   0  0  0  0  0  0  0  0  0  0  0  0
   -4.2624   -1.5473    0.2845 H   0  0  0  0  0  0  0  0  0  0  0  0
   -3.7048   -2.1365   -1.3087 H   0  0  0  0  0  0  0  0  0  0  0  0
   -5.3526    1.7078   -0.9159 H   0  0  0  0  0  0  0  0  0  0  0  0
   -2.7725   -0.1647    1.7093 H   0  0  0  0  0  0  0  0  0  0  0  0
  1  2  1  0
  2  3  1  0
  3  4  1  0
  4  5  1  0
  5  6  2  0
  6  7  1  0
  7  8  2  0
  8  9  1  0
  9 10  1  0
 10 11  1  0
 10 12  2  0
  8 13  1  0
 13 14  2  0
 14 15  1  0
 14  5  1  0
  1 16  1  0
  1 17  1  0
  1 18  1  0
  2 19  1  0
  2 20  1  0
  3 21  1  0
  3 22  1  0
  6 23  1  0
  7 24  1  0
  9 25  1  0
  9 26  1  0
 11 27  1  0
 13 28  1  0
M  END
$$$$
