
     RDKit          3D

 53 55  0  0  0  0  0  0  0  0999 V2000
   -1.4423   -1.4085   -0.5250 N   0  0  0  0  0  0  0  0  0  0  0  0
   -0.1261   -1.0031   -0.1123 C   0  0  0  0  0  0  0  0  0  0  0  0
    0.9659   -1.2459   -0.9575 C   0  0  0  0  0  0  0  0  0  0  0  0
    2.2589   -0.8822   -0.5699 C   0  0  0  0  0  0  0  0  0  0  0  0
    2.4808   -0.2822    0.6840 C   0  0  0  0  0  0  0  0  0  0  0  0
    3.7575    0.1024    1.1193 O   0  0  0  0  0  0  0  0  0  0  0  0
    4.9527   -0.0653    0.3592 C   0  0  0  0  0  0  0  0  0  0  0  0
    6.1559    0.4769    1.1446 C   0  0  1  0  0  0  0  0  0  0  0  0
    6.0964   -0.0008    2.4660 O   0  0  0  0  0  0  0  0  0  0  0  0
    7.5164    0.0317    0.5478 C   0  0  0  0  0  0  0  0  0  0  0  0
    7.8546    0.5458   -0.8021 N   0  0  0  0  0  0  0  0  0  0  0  0
    7.3361   -0.2655   -1.9149 C   0  0  0  0  0  0  0  0  0  0  0  0
    7.6069    1.9813   -0.9962 C   0  0  0  0  0  0  0  0  0  0  0  0
    1.3935   -0.0620    1.5366 C   0  0  0  0  0  0  0  0  0  0  0  0
    0.1006   -0.4248    1.1487 C   0  0  0  0  0  0  0  0  0  0  0  0
   -2.6437   -0.6898   -0.2008 C   0  0  0  0  0  0  0  0  0  0  0  0
   -3.8923   -1.2850   -0.4117 C   0  0  0  0  0  0  0  0  0  0  0  0
   -5.0481   -0.5519   -0.1220 C   0  0  0  0  0  0  0  0  0  0  0  0
   -4.9312    0.7142    0.3636 N   0  0  0  0  0  0  0  0  0  0  0  0
   -3.7137    1.2842    0.5529 C   0  0  0  0  0  0  0  0  0  0  0  0
   -2.5844    0.5870    0.2666 N   0  0  0  0  0  0  0  0  0  0  0  0
   -6.3419   -1.1500   -0.2985 N   0  0  0  0  0  0  0  0  0  0  0  0
   -7.5710   -0.4121   -0.2071 C   0  0  0  0  0  0  0  0  0  0  0  0
   -7.7440    0.8034   -0.8982 C   0  0  0  0  0  0  0  0  0  0  0  0
   -6.7616    1.2949   -1.6946 F   0  0  0  0  0  0  0  0  0  0  0  0
   -8.9560    1.4958   -0.8075 C   0  0  0  0  0  0  0  0  0  0  0  0
  -10.0049    0.9789   -0.0434 C   0  0  0  0  0  0  0  0  0  0  0  0
   -9.8491   -0.2381    0.6243 C   0  0  0  0  0  0  0  0  0  0  0  0
   -8.6407   -0.9368    0.5378 C   0  0  0  0  0  0  0  0  0  0  0  0
   -8.5043   -2.1160    1.1951 F   0  0  0  0  0  0  0  0  0  0  0  0
   -1.5205   -2.2302   -1.1670 H   0  0  0  0  0  0  0  0  0  0  0  0
    0.8120   -1.7088   -1.9244 H   0  0  0  0  0  0  0  0  0  0  0  0
    3.0770   -1.0736   -1.2507 H   0  0  0  0  0  0  0  0  0  0  0  0
    5.1007   -1.1452    0.1388 H   0  0  0  0  0  0  0  0  0  0  0  0
    4.8421    0.5033   -0.5848 H   0  0  0  0  0  0  0  0  0  0  0  0
    6.1061    1.5902    1.1580 H   0  0  0  0  0  0  0  0  0  0  0  0
    5.5185    0.6219    2.9808 H   0  0  0  0  0  0  0  0  0  0  0  0
    7.5811   -1.0789    0.5667 H   0  0  0  0  0  0  0  0  0  0  0  0
    8.3125    0.3788    1.2420 H   0  0  0  0  0  0  0  0  0  0  0  0
    7.9437   -0.0682   -2.8232 H   0  0  0  0  0  0  0  0  0  0  0  0
    7.4216   -1.3509   -1.6945 H   0  0  0  0  0  0  0  0  0  0  0  0
    6.2828   -0.0218   -2.1541 H   0  0  0  0  0  0  0  0  0  0  0  0
    8.1287    2.3294   -1.9129 H   0  0  0  0  0  0  0  0  0  0  0  0
    6.5221    2.1937   -1.1070 H   0  0  0  0  0  0  0  0  0  0  0  0
    8.0134    2.5619   -0.1404 H   0  0  0  0  0  0  0  0  0  0  0  0
    1.5532    0.3852    2.5096 H   0  0  0  0  0  0  0  0  0  0  0  0
   -0.7148   -0.2757    1.8439 H   0  0  0  0  0  0  0  0  0  0  0  0
   -3.9630   -2.2965   -0.7925 H   0  0  0  0  0  0  0  0  0  0  0  0
   -3.6432    2.2945    0.9315 H   0  0  0  0  0  0  0  0  0  0  0  0
   -6.3992   -2.1908   -0.3787 H   0  0  0  0  0  0  0  0  0  0  0  0
   -9.0870    2.4293   -1.3396 H   0  0  0  0  0  0  0  0  0  0  0  0
  -10.9419    1.5165    0.0231 H   0  0  0  0  0  0  0  0  0  0  0  0
  -10.6667   -0.6404    1.2087 H   0  0  0  0  0  0  0  0  0  0  0  0
  1  2  1  0
  2  3  2  0
  3  4  1  0
  4  5  2  0
  5  6  1  0
  6  7  1  0
  7  8  1  0
  8  9  1  0
  8 10  1  0
 10 11  1  0
 11 12  1  0
 11 13  1  0
  5 14  1  0
 14 15  2  0
  1 16  1  0
 16 17  2  0
 17 18  1  0
 18 19  2  0
 19 20  1  0
 20 21  2  0
 18 22  1  0
 22 23  1  0
 23 24  2  0
 24 25  1  0
 24 26  1  0
 26 27  2  0
 27 28  1  0
 28 29  2  0
 29 30  1  0
 15  2  1  0
 21 16  1  0
 29 23  1  0
  1 31  1  0
  3 32  1  0
  4 33  1  0
  7 34  1  0
  7 35  1  0
  8 36  1  1
  9 37  1  0
 10 38  1  0
 10 39  1  0
 12 40  1  0
 12 41  1  0
 12 42  1  0
 13 43  1  0
 13 44  1  0
 13 45  1  0
 14 46  1  0
 15 47  1  0
 17 48  1  0
 20 49  1  0
 22 50  1  0
 26 51  1  0
 27 52  1  0
 28 53  1  0
M  END
$$$$
