
     RDKit          3D

 56 57  0  0  0  0  0  0  0  0999 V2000
    3.8813   -2.3175    0.7763 C   0  0  0  0  0  0  0  0  0  0  0  0
    5.1117   -1.5231    0.4223 C   0  0  0  0  0  0  0  0  0  0  0  0
    5.0563   -1.0391   -1.0343 C   0  0  0  0  0  0  0  0  0  0  0  0
    6.2643   -0.1689   -1.4004 C   0  0  0  0  0  0  0  0  0  0  0  0
    6.2112    1.1609   -0.7123 C   0  0  0  0  0  0  0  0  0  0  0  0
    5.2755    2.1102   -1.1115 O   0  0  0  0  0  0  0  0  0  0  0  0
    6.9953    1.4116    0.2416 O   0  0  0  0  0  0  0  0  0  0  0  0
    2.6815   -1.7881    1.0848 C   0  0  0  0  0  0  0  0  0  0  0  0
    2.3796   -0.3049    1.1730 C   0  0  0  0  0  0  0  0  0  0  0  0
    1.1315    0.1606    0.3833 C   0  0  1  0  0  0  0  0  0  0  0  0
    1.1693   -0.0953   -1.1464 C   0  0  2  0  0  0  0  0  0  0  0  0
   -0.2855    0.1651   -1.4945 C   0  0  0  0  0  0  0  0  0  0  0  0
   -0.7490   -0.9719   -0.5982 C   0  0  1  0  0  0  0  0  0  0  0  0
    0.1307   -2.0226   -1.0508 N   0  0  0  0  0  0  0  0  0  0  0  0
    1.2249   -1.5222   -1.3657 N   0  0  0  0  0  0  0  0  0  0  0  0
   -0.2190   -0.5189    0.7883 C   0  0  2  0  0  0  0  0  0  0  0  0
   -1.1782    0.4318    1.4709 C   0  0  0  0  0  0  0  0  0  0  0  0
   -2.3914    0.0189    1.8651 C   0  0  0  0  0  0  0  0  0  0  0  0
   -3.3962    0.9655    2.4653 C   0  0  0  0  0  0  0  0  0  0  0  0
   -3.8301    2.0787    1.4914 C   0  0  0  0  0  0  0  0  0  0  0  0
   -4.2524    1.5814    0.0960 C   0  0  0  0  0  0  0  0  0  0  0  0
   -5.4514    0.6203    0.1429 C   0  0  0  0  0  0  0  0  0  0  0  0
   -5.9588    0.2495   -1.2590 C   0  0  0  0  0  0  0  0  0  0  0  0
   -4.9853   -0.6530   -2.0185 C   0  0  0  0  0  0  0  0  0  0  0  0
    3.9811   -3.3989    0.8078 H   0  0  0  0  0  0  0  0  0  0  0  0
    5.9980   -2.1837    0.5396 H   0  0  0  0  0  0  0  0  0  0  0  0
    5.2426   -0.6801    1.1330 H   0  0  0  0  0  0  0  0  0  0  0  0
    5.0452   -1.9266   -1.7044 H   0  0  0  0  0  0  0  0  0  0  0  0
    4.1227   -0.4706   -1.2248 H   0  0  0  0  0  0  0  0  0  0  0  0
    6.2629    0.0045   -2.4978 H   0  0  0  0  0  0  0  0  0  0  0  0
    7.2084   -0.6988   -1.1458 H   0  0  0  0  0  0  0  0  0  0  0  0
    5.2166    3.0086   -0.6475 H   0  0  0  0  0  0  0  0  0  0  0  0
    1.8972   -2.4841    1.3618 H   0  0  0  0  0  0  0  0  0  0  0  0
    2.2222   -0.0589    2.2446 H   0  0  0  0  0  0  0  0  0  0  0  0
    3.2358    0.3114    0.8349 H   0  0  0  0  0  0  0  0  0  0  0  0
    1.0732    1.2645    0.5264 H   0  0  0  0  0  0  0  0  0  0  0  0
    1.9198    0.4816   -1.7263 H   0  0  0  0  0  0  0  0  0  0  0  0
   -0.6634    1.1714   -1.1983 H   0  0  0  0  0  0  0  0  0  0  0  0
   -0.5040   -0.0306   -2.5691 H   0  0  0  0  0  0  0  0  0  0  0  0
   -1.8244   -1.2425   -0.6640 H   0  0  0  0  0  0  0  0  0  0  0  0
   -0.0690   -1.3980    1.4503 H   0  0  0  0  0  0  0  0  0  0  0  0
   -0.8931    1.4673    1.6335 H   0  0  0  0  0  0  0  0  0  0  0  0
   -2.6804   -1.0194    1.7260 H   0  0  0  0  0  0  0  0  0  0  0  0
   -2.9616    1.4281    3.3777 H   0  0  0  0  0  0  0  0  0  0  0  0
   -4.2892    0.3889    2.7873 H   0  0  0  0  0  0  0  0  0  0  0  0
   -4.6711    2.6445    1.9480 H   0  0  0  0  0  0  0  0  0  0  0  0
   -2.9895    2.7953    1.3667 H   0  0  0  0  0  0  0  0  0  0  0  0
   -3.3870    1.0933   -0.3985 H   0  0  0  0  0  0  0  0  0  0  0  0
   -4.5238    2.4691   -0.5159 H   0  0  0  0  0  0  0  0  0  0  0  0
   -6.2826    1.1096    0.6959 H   0  0  0  0  0  0  0  0  0  0  0  0
   -5.1806   -0.3088    0.6885 H   0  0  0  0  0  0  0  0  0  0  0  0
   -6.1550    1.1691   -1.8519 H   0  0  0  0  0  0  0  0  0  0  0  0
   -6.9233   -0.2923   -1.1506 H   0  0  0  0  0  0  0  0  0  0  0  0
   -4.7302   -1.5484   -1.4126 H   0  0  0  0  0  0  0  0  0  0  0  0
   -4.0557   -0.1038   -2.2745 H   0  0  0  0  0  0  0  0  0  0  0  0
   -5.4576   -0.9903   -2.9651 H   0  0  0  0  0  0  0  0  0  0  0  0
  1  2  1  0
  2  3  1  0
  3  4  1  0
  4  5  1  0
  5  6  1  0
  5  7  2  0
  1  8  2  0
  8  9  1  0
  9 10  1  0
 10 11  1  0
 11 12  1  0
 12 13  1  0
 13 14  1  0
 14 15  2  0
 13 16  1  0
 16 17  1  0
 17 18  2  0
 18 19  1  0
 19 20  1  0
 20 21  1  0
 21 22  1  0
 22 23  1  0
 23 24  1  0
 16 10  1  0
 15 11  1  0
  1 25  1  0
  2 26  1  0
  2 27  1  0
  3 28  1  0
  3 29  1  0
  4 30  1  0
  4 31  1  0
  6 32  1  0
  8 33  1  0
  9 34  1  0
  9 35  1  0
 10 36  1  6
 11 37  1  6
 12 38  1  0
 12 39  1  0
 13 40  1  1
 16 41  1  1
 17 42  1  0
 18 43  1  0
 19 44  1  0
 19 45  1  0
 20 46  1  0
 20 47  1  0
 21 48  1  0
 21 49  1  0
 22 50  1  0
 22 51  1  0
 23 52  1  0
 23 53  1  0
 24 54  1  0
 24 55  1  0
 24 56  1  0
M  END
$$$$
