
     RDKit          3D

 56 58  0  0  0  0  0  0  0  0999 V2000
   -3.3601    0.2680    0.0209 C   0  0  2  0  0  0  0  0  0  0  0  0
   -3.5786    1.2843   -1.0983 C   0  0  0  0  0  0  0  0  0  0  0  0
   -4.9387    1.9033   -0.8333 C   0  0  0  0  0  0  0  0  0  0  0  0
   -5.7726    0.8002   -0.2029 C   0  0  0  0  0  0  0  0  0  0  0  0
   -4.7723   -0.1281    0.5153 C   0  0  1  0  0  0  0  0  0  0  0  0
   -5.0373   -1.5828    0.3387 N   0  0  0  0  0  0  0  0  0  0  0  0
   -5.1582   -2.0391   -1.0610 C   0  0  0  0  0  0  0  0  0  0  0  0
   -6.2043   -2.0173    1.1232 C   0  0  0  0  0  0  0  0  0  0  0  0
   -2.5794    0.8834    1.1032 N   0  0  0  0  0  0  0  0  0  0  0  0
   -1.1460    0.7644    1.1820 C   0  0  0  0  0  0  0  0  0  0  0  0
   -0.4682    0.1933    0.1488 N   0  0  0  0  0  0  0  0  0  0  0  0
    0.8835    0.0790    0.1503 C   0  0  0  0  0  0  0  0  0  0  0  0
    1.5401   -0.5604   -0.9535 N   0  0  0  0  0  0  0  0  0  0  0  0
    2.9608   -0.5387   -1.1716 C   0  0  0  0  0  0  0  0  0  0  0  0
    3.5876   -1.6596   -1.7356 C   0  0  0  0  0  0  0  0  0  0  0  0
    4.9645   -1.6550   -1.9765 C   0  0  0  0  0  0  0  0  0  0  0  0
    5.7292   -0.5212   -1.6759 C   0  0  0  0  0  0  0  0  0  0  0  0
    5.1054    0.6089   -1.1306 C   0  0  0  0  0  0  0  0  0  0  0  0
    3.7287    0.6048   -0.8879 C   0  0  0  0  0  0  0  0  0  0  0  0
    7.4673   -0.5333   -1.9656 S   0  0  0  0  0  6  0  0  0  0  0  0
    7.9979    0.8739   -1.9890 O   0  0  0  0  0  0  0  0  0  0  0  0
    7.7358   -1.1646   -3.3028 O   0  0  0  0  0  0  0  0  0  0  0  0
    8.2748   -1.4486   -0.7288 N   0  0  0  0  0  0  0  0  0  0  0  0
    8.0494   -0.8248    0.5731 C   0  0  0  0  0  0  0  0  0  0  0  0
    1.5918    0.5297    1.2168 N   0  0  0  0  0  0  0  0  0  0  0  0
    0.9750    1.1067    2.2777 C   0  0  0  0  0  0  0  0  0  0  0  0
   -0.4240    1.2372    2.3042 C   0  0  0  0  0  0  0  0  0  0  0  0
   -1.1125    1.8708    3.4948 C   0  0  0  0  0  0  0  0  0  0  0  0
   -1.6600    3.0844    3.1207 F   0  0  0  0  0  0  0  0  0  0  0  0
   -0.2285    2.0946    4.5366 F   0  0  0  0  0  0  0  0  0  0  0  0
   -2.1148    1.0369    3.9580 F   0  0  0  0  0  0  0  0  0  0  0  0
   -2.8163   -0.6196   -0.3702 H   0  0  0  0  0  0  0  0  0  0  0  0
   -2.7823    2.0602   -1.1279 H   0  0  0  0  0  0  0  0  0  0  0  0
   -3.5979    0.7617   -2.0798 H   0  0  0  0  0  0  0  0  0  0  0  0
   -5.4015    2.2798   -1.7713 H   0  0  0  0  0  0  0  0  0  0  0  0
   -4.8288    2.7458   -0.1149 H   0  0  0  0  0  0  0  0  0  0  0  0
   -6.3435    0.2861   -1.0004 H   0  0  0  0  0  0  0  0  0  0  0  0
   -6.5042    1.2287    0.5165 H   0  0  0  0  0  0  0  0  0  0  0  0
   -4.8332    0.1046    1.6040 H   0  0  0  0  0  0  0  0  0  0  0  0
   -6.1866   -1.8964   -1.4586 H   0  0  0  0  0  0  0  0  0  0  0  0
   -4.9231   -3.1232   -1.1096 H   0  0  0  0  0  0  0  0  0  0  0  0
   -4.4434   -1.5195   -1.7297 H   0  0  0  0  0  0  0  0  0  0  0  0
   -6.3512   -3.1141    1.0180 H   0  0  0  0  0  0  0  0  0  0  0  0
   -6.0393   -1.8117    2.2025 H   0  0  0  0  0  0  0  0  0  0  0  0
   -7.1282   -1.4954    0.7904 H   0  0  0  0  0  0  0  0  0  0  0  0
   -3.0660    1.5812    1.7085 H   0  0  0  0  0  0  0  0  0  0  0  0
    0.9528   -1.1449   -1.5909 H   0  0  0  0  0  0  0  0  0  0  0  0
    3.0091   -2.5427   -1.9763 H   0  0  0  0  0  0  0  0  0  0  0  0
    5.4343   -2.5354   -2.3964 H   0  0  0  0  0  0  0  0  0  0  0  0
    5.6813    1.4947   -0.8957 H   0  0  0  0  0  0  0  0  0  0  0  0
    3.2638    1.5018   -0.5012 H   0  0  0  0  0  0  0  0  0  0  0  0
    9.2995   -1.3990   -0.9319 H   0  0  0  0  0  0  0  0  0  0  0  0
    6.9707   -0.8574    0.8344 H   0  0  0  0  0  0  0  0  0  0  0  0
    8.4075    0.2278    0.5788 H   0  0  0  0  0  0  0  0  0  0  0  0
    8.6058   -1.3888    1.3510 H   0  0  0  0  0  0  0  0  0  0  0  0
    1.5842    1.4566    3.1000 H   0  0  0  0  0  0  0  0  0  0  0  0
  1  2  1  0
  2  3  1  0
  3  4  1  0
  4  5  1  0
  5  6  1  0
  6  7  1  0
  6  8  1  0
  1  9  1  0
  9 10  1  0
 10 11  2  0
 11 12  1  0
 12 13  1  0
 13 14  1  0
 14 15  2  0
 15 16  1  0
 16 17  2  0
 17 18  1  0
 18 19  2  0
 17 20  1  0
 20 21  2  0
 20 22  2  0
 20 23  1  0
 23 24  1  0
 12 25  2  0
 25 26  1  0
 26 27  2  0
 27 28  1  0
 28 29  1  0
 28 30  1  0
 28 31  1  0
  5  1  1  0
 27 10  1  0
 19 14  1  0
  1 32  1  6
  2 33  1  0
  2 34  1  0
  3 35  1  0
  3 36  1  0
  4 37  1  0
  4 38  1  0
  5 39  1  1
  7 40  1  0
  7 41  1  0
  7 42  1  0
  8 43  1  0
  8 44  1  0
  8 45  1  0
  9 46  1  0
 13 47  1  0
 15 48  1  0
 16 49  1  0
 18 50  1  0
 19 51  1  0
 23 52  1  0
 24 53  1  0
 24 54  1  0
 24 55  1  0
 26 56  1  0
M  END
$$$$
