
     RDKit          3D

 15 16  0  0  0  0  0  0  0  0999 V2000
   -3.4319   -1.4001   -0.1204 Cl  0  0  0  0  0  0  0  0  0  0  0  0
   -1.9062   -0.5386   -0.0478 C   0  0  0  0  0  0  0  0  0  0  0  0
   -0.6939   -1.2558   -0.1019 C   0  0  0  0  0  0  0  0  0  0  0  0
    0.4890   -0.5237   -0.0405 C   0  0  0  0  0  0  0  0  0  0  0  0
    0.4954    0.8377    0.0681 C   0  0  0  0  0  0  0  0  0  0  0  0
    1.7361    1.2592    0.1049 O   0  0  0  0  0  0  0  0  0  0  0  0
    2.4790    0.1684    0.0198 C   0  0  0  0  0  0  0  0  0  0  0  0
    3.7377    0.1869    0.0244 O   0  0  0  0  0  0  0  0  0  0  0  0
    1.7534   -0.9714   -0.0730 N   0  0  0  0  0  0  0  0  0  0  0  0
   -0.6810    1.5790    0.1242 C   0  0  0  0  0  0  0  0  0  0  0  0
   -1.8984    0.8733    0.0648 C   0  0  0  0  0  0  0  0  0  0  0  0
   -0.6799   -2.3348   -0.1880 H   0  0  0  0  0  0  0  0  0  0  0  0
    2.0941   -1.9557   -0.1507 H   0  0  0  0  0  0  0  0  0  0  0  0
   -0.6607    2.6575    0.2103 H   0  0  0  0  0  0  0  0  0  0  0  0
   -2.8327    1.4182    0.1059 H   0  0  0  0  0  0  0  0  0  0  0  0
  1  2  1  0
  2  3  2  0
  3  4  1  0
  4  5  2  0
  5  6  1  0
  6  7  1  0
  7  8  2  0
  7  9  1  0
  5 10  1  0
 10 11  2  0
 11  2  1  0
  9  4  1  0
  3 12  1  0
  9 13  1  0
 10 14  1  0
 11 15  1  0
M  END
$$$$
