
     RDKit          3D

 61 63  0  0  0  0  0  0  0  0999 V2000
    2.7631   -2.0290   -0.3083 C   0  0  2  0  0  0  0  0  0  0  0  0
    4.0306   -1.4162    0.3122 C   0  0  0  0  0  0  0  0  0  0  0  0
    5.5369   -1.8876   -0.6198 S   0  0  0  0  0  0  0  0  0  0  0  0
    5.4775   -0.5351   -1.8509 C   0  0  0  0  0  0  0  0  0  0  0  0
    6.0141    0.7428   -1.2666 C   0  0  0  0  0  0  0  0  0  0  0  0
    7.3815    0.8601   -0.9652 C   0  0  0  0  0  0  0  0  0  0  0  0
    7.8829    2.0436   -0.4145 C   0  0  0  0  0  0  0  0  0  0  0  0
    7.0246    3.1171   -0.1615 C   0  0  0  0  0  0  0  0  0  0  0  0
    5.6636    3.0092   -0.4596 C   0  0  0  0  0  0  0  0  0  0  0  0
    5.1580    1.8278   -1.0109 C   0  0  0  0  0  0  0  0  0  0  0  0
    1.5680   -1.5217    0.3723 N   0  0  0  0  0  0  0  0  0  0  0  0
    0.2564   -1.6429   -0.1990 C   0  0  0  0  0  0  0  0  0  0  0  0
    0.1035   -2.2105   -1.3156 O   0  0  0  0  0  0  0  0  0  0  0  0
   -0.9473   -1.1426    0.5566 C   0  0  2  0  0  0  0  0  0  0  0  0
   -1.6901   -2.3256    1.2016 C   0  0  0  0  0  0  0  0  0  0  0  0
   -2.8636   -1.8541    2.0221 C   0  0  0  0  0  0  0  0  0  0  0  0
   -2.6674   -1.3839    3.3312 C   0  0  0  0  0  0  0  0  0  0  0  0
   -3.7457   -0.8865    4.0697 C   0  0  0  0  0  0  0  0  0  0  0  0
   -5.0234   -0.8472    3.5046 C   0  0  0  0  0  0  0  0  0  0  0  0
   -5.2254   -1.3057    2.2001 C   0  0  0  0  0  0  0  0  0  0  0  0
   -4.1509   -1.8068    1.4593 C   0  0  0  0  0  0  0  0  0  0  0  0
   -1.8415   -0.4120   -0.3503 N   0  0  0  0  0  0  0  0  0  0  0  0
   -2.5288    0.7894    0.0461 C   0  0  0  0  0  0  0  0  0  0  0  0
   -2.2457    1.3368    1.1470 O   0  0  0  0  0  0  0  0  0  0  0  0
   -3.5618    1.3601   -0.7820 N   0  0  0  0  0  0  0  0  0  0  0  0
   -3.6560    1.0140   -2.2048 C   0  0  0  0  0  0  0  0  0  0  0  0
   -4.3844    2.1202   -2.9743 C   0  0  0  0  0  0  0  0  0  0  0  0
   -5.6117    2.4431   -2.3512 O   0  0  0  0  0  0  0  0  0  0  0  0
   -5.3613    3.0133   -1.0821 C   0  0  0  0  0  0  0  0  0  0  0  0
   -4.7245    1.9870   -0.1411 C   0  0  0  0  0  0  0  0  0  0  0  0
    2.7935   -3.5317   -0.2246 C   0  0  0  0  0  0  0  0  0  0  0  0
    2.7818   -4.0962    0.8582 O   0  0  0  0  0  0  0  0  0  0  0  0
    2.7184   -1.7307   -1.3776 H   0  0  0  0  0  0  0  0  0  0  0  0
    3.9335   -0.3119    0.3543 H   0  0  0  0  0  0  0  0  0  0  0  0
    4.1457   -1.7716    1.3587 H   0  0  0  0  0  0  0  0  0  0  0  0
    6.1091   -0.8274   -2.7161 H   0  0  0  0  0  0  0  0  0  0  0  0
    4.4450   -0.4016   -2.2361 H   0  0  0  0  0  0  0  0  0  0  0  0
    8.0564    0.0348   -1.1555 H   0  0  0  0  0  0  0  0  0  0  0  0
    8.9368    2.1282   -0.1833 H   0  0  0  0  0  0  0  0  0  0  0  0
    7.4141    4.0323    0.2653 H   0  0  0  0  0  0  0  0  0  0  0  0
    4.9998    3.8413   -0.2632 H   0  0  0  0  0  0  0  0  0  0  0  0
    4.1006    1.7591   -1.2351 H   0  0  0  0  0  0  0  0  0  0  0  0
    1.6648   -1.0803    1.3153 H   0  0  0  0  0  0  0  0  0  0  0  0
   -0.5895   -0.4660    1.3633 H   0  0  0  0  0  0  0  0  0  0  0  0
   -0.9900   -2.8898    1.8572 H   0  0  0  0  0  0  0  0  0  0  0  0
   -2.0361   -3.0306    0.4132 H   0  0  0  0  0  0  0  0  0  0  0  0
   -1.6793   -1.3940    3.7743 H   0  0  0  0  0  0  0  0  0  0  0  0
   -3.5894   -0.5251    5.0778 H   0  0  0  0  0  0  0  0  0  0  0  0
   -5.8559   -0.4573    4.0758 H   0  0  0  0  0  0  0  0  0  0  0  0
   -6.2135   -1.2665    1.7602 H   0  0  0  0  0  0  0  0  0  0  0  0
   -4.3183   -2.1422    0.4433 H   0  0  0  0  0  0  0  0  0  0  0  0
   -2.1510   -0.9050   -1.2173 H   0  0  0  0  0  0  0  0  0  0  0  0
   -4.2123    0.0577   -2.3134 H   0  0  0  0  0  0  0  0  0  0  0  0
   -2.6411    0.8964   -2.6431 H   0  0  0  0  0  0  0  0  0  0  0  0
   -3.7335    3.0192   -3.0740 H   0  0  0  0  0  0  0  0  0  0  0  0
   -4.5950    1.7582   -4.0027 H   0  0  0  0  0  0  0  0  0  0  0  0
   -4.7167    3.9185   -1.1654 H   0  0  0  0  0  0  0  0  0  0  0  0
   -6.3278    3.3434   -0.6464 H   0  0  0  0  0  0  0  0  0  0  0  0
   -5.4689    1.2000    0.1083 H   0  0  0  0  0  0  0  0  0  0  0  0
   -4.4318    2.5036    0.7983 H   0  0  0  0  0  0  0  0  0  0  0  0
    2.8192   -4.1219   -1.1347 H   0  0  0  0  0  0  0  0  0  0  0  0
  1  2  1  0
  2  3  1  0
  3  4  1  0
  4  5  1  0
  5  6  2  0
  6  7  1  0
  7  8  2  0
  8  9  1  0
  9 10  2  0
  1 11  1  0
 11 12  1  0
 12 13  2  0
 12 14  1  0
 14 15  1  0
 15 16  1  0
 16 17  2  0
 17 18  1  0
 18 19  2  0
 19 20  1  0
 20 21  2  0
 14 22  1  0
 22 23  1  0
 23 24  2  0
 23 25  1  0
 25 26  1  0
 26 27  1  0
 27 28  1  0
 28 29  1  0
 29 30  1  0
  1 31  1  0
 31 32  2  0
 10  5  1  0
 21 16  1  0
 30 25  1  0
  1 33  1  6
  2 34  1  0
  2 35  1  0
  4 36  1  0
  4 37  1  0
  6 38  1  0
  7 39  1  0
  8 40  1  0
  9 41  1  0
 10 42  1  0
 11 43  1  0
 14 44  1  1
 15 45  1  0
 15 46  1  0
 17 47  1  0
 18 48  1  0
 19 49  1  0
 20 50  1  0
 21 51  1  0
 22 52  1  0
 26 53  1  0
 26 54  1  0
 27 55  1  0
 27 56  1  0
 29 57  1  0
 29 58  1  0
 30 59  1  0
 30 60  1  0
 31 61  1  0
M  END
$$$$
