
     RDKit          3D

 36 38  0  0  0  0  0  0  0  0999 V2000
    1.6201    0.6326   -1.9177 F   0  0  0  0  0  0  0  0  0  0  0  0
    2.5613   -0.0642   -1.2312 C   0  0  0  0  0  0  0  0  0  0  0  0
    3.8518   -0.1589   -1.7628 C   0  0  0  0  0  0  0  0  0  0  0  0
    4.8318   -0.9028   -1.1026 C   0  0  0  0  0  0  0  0  0  0  0  0
    4.5240   -1.5607    0.0896 C   0  0  0  0  0  0  0  0  0  0  0  0
    3.2370   -1.4717    0.6276 C   0  0  0  0  0  0  0  0  0  0  0  0
    2.2431   -0.7138   -0.0199 C   0  0  0  0  0  0  0  0  0  0  0  0
    0.8797   -0.6259    0.5632 C   0  0  0  0  0  0  0  0  0  0  0  0
    0.4064   -1.6678    1.1835 N   0  0  0  0  0  0  0  0  0  0  0  0
   -0.9204   -1.7319    1.7753 C   0  0  0  0  0  0  0  0  0  0  0  0
   -1.9216   -1.6675    0.6665 C   0  0  0  0  0  0  0  0  0  0  0  0
   -2.5238   -3.0974    0.1178 S   0  0  0  0  0  0  0  0  0  0  0  0
   -2.0578   -0.4463   -0.1060 N   0  0  0  0  0  0  0  0  0  0  0  0
   -3.0230   -0.3657   -1.2231 C   0  0  0  0  0  0  0  0  0  0  0  0
   -4.4824   -0.3089   -0.7338 C   0  0  0  0  0  0  0  0  0  0  0  0
   -4.9917   -1.5848   -0.5842 F   0  0  0  0  0  0  0  0  0  0  0  0
   -5.2537    0.3588   -1.6679 F   0  0  0  0  0  0  0  0  0  0  0  0
   -4.5804    0.3516    0.4776 F   0  0  0  0  0  0  0  0  0  0  0  0
   -1.2725    0.7332    0.2268 C   0  0  0  0  0  0  0  0  0  0  0  0
    0.1212    0.6598    0.5234 C   0  0  0  0  0  0  0  0  0  0  0  0
    0.8269    1.8434    0.8151 C   0  0  0  0  0  0  0  0  0  0  0  0
    0.1873    3.0819    0.8046 C   0  0  0  0  0  0  0  0  0  0  0  0
    1.0912    4.5406    1.1688 Cl  0  0  0  0  0  0  0  0  0  0  0  0
   -1.1697    3.1596    0.5074 C   0  0  0  0  0  0  0  0  0  0  0  0
   -1.8914    2.0018    0.2217 C   0  0  0  0  0  0  0  0  0  0  0  0
    4.0912    0.3398   -2.6932 H   0  0  0  0  0  0  0  0  0  0  0  0
    5.8287   -0.9740   -1.5180 H   0  0  0  0  0  0  0  0  0  0  0  0
    5.2837   -2.1397    0.5986 H   0  0  0  0  0  0  0  0  0  0  0  0
    3.0217   -1.9832    1.5577 H   0  0  0  0  0  0  0  0  0  0  0  0
   -1.0181   -2.6788    2.3483 H   0  0  0  0  0  0  0  0  0  0  0  0
   -1.0710   -0.8924    2.4883 H   0  0  0  0  0  0  0  0  0  0  0  0
   -2.8115    0.5315   -1.8455 H   0  0  0  0  0  0  0  0  0  0  0  0
   -2.8876   -1.2277   -1.9106 H   0  0  0  0  0  0  0  0  0  0  0  0
    1.8812    1.8035    1.0617 H   0  0  0  0  0  0  0  0  0  0  0  0
   -1.6699    4.1198    0.4976 H   0  0  0  0  0  0  0  0  0  0  0  0
   -2.9420    2.1062   -0.0049 H   0  0  0  0  0  0  0  0  0  0  0  0
  1  2  1  0
  2  3  2  0
  3  4  1  0
  4  5  2  0
  5  6  1  0
  6  7  2  0
  7  8  1  0
  8  9  2  0
  9 10  1  0
 10 11  1  0
 11 12  2  0
 11 13  1  0
 13 14  1  0
 14 15  1  0
 15 16  1  0
 15 17  1  0
 15 18  1  0
 13 19  1  0
 19 20  2  0
 20 21  1  0
 21 22  2  0
 22 23  1  0
 22 24  1  0
 24 25  2  0
  7  2  1  0
 20  8  1  0
 25 19  1  0
  3 26  1  0
  4 27  1  0
  5 28  1  0
  6 29  1  0
 10 30  1  0
 10 31  1  0
 14 32  1  0
 14 33  1  0
 21 34  1  0
 24 35  1  0
 25 36  1  0
M  END
$$$$
