
     RDKit          3D

 36 37  0  0  0  0  0  0  0  0999 V2000
    6.5333   -1.2963    2.7849 O   0  0  0  0  0  0  0  0  0  0  0  0
    5.5201   -0.8662    1.9953 N   0  0  0  0  0  0  0  0  0  0  0  0
    5.2537   -1.5167    0.7456 C   0  0  0  0  0  0  0  0  0  0  0  0
    6.0580   -2.3901    0.3238 O   0  0  0  0  0  0  0  0  0  0  0  0
    4.0814   -1.1796   -0.0884 C   0  0  0  0  0  0  0  0  0  0  0  0
    3.0047   -0.5292    0.3773 C   0  0  0  0  0  0  0  0  0  0  0  0
    1.8254   -0.1871   -0.4568 C   0  0  0  0  0  0  0  0  0  0  0  0
    1.5012   -0.8869   -1.6369 C   0  0  0  0  0  0  0  0  0  0  0  0
    0.3729   -0.5318   -2.3810 C   0  0  0  0  0  0  0  0  0  0  0  0
   -0.4495    0.5124   -1.9560 C   0  0  0  0  0  0  0  0  0  0  0  0
   -0.1541    1.2032   -0.7756 C   0  0  0  0  0  0  0  0  0  0  0  0
    0.9799    0.8517   -0.0301 C   0  0  0  0  0  0  0  0  0  0  0  0
   -1.2116    2.5029   -0.2334 S   0  0  0  0  0  6  0  0  0  0  0  0
   -1.0355    2.7559    1.2380 O   0  0  0  0  0  0  0  0  0  0  0  0
   -0.8647    3.7544   -0.9889 O   0  0  0  0  0  0  0  0  0  0  0  0
   -2.8684    2.0881   -0.5428 N   0  0  0  0  0  0  0  0  0  0  0  0
   -3.4941    0.8769   -0.0819 C   0  0  0  0  0  0  0  0  0  0  0  0
   -4.7748    0.5459   -0.5555 C   0  0  0  0  0  0  0  0  0  0  0  0
   -5.4080   -0.6263   -0.1317 C   0  0  0  0  0  0  0  0  0  0  0  0
   -4.7705   -1.4789    0.7719 C   0  0  0  0  0  0  0  0  0  0  0  0
   -3.5000   -1.1587    1.2553 C   0  0  0  0  0  0  0  0  0  0  0  0
   -2.8628    0.0129    0.8351 C   0  0  0  0  0  0  0  0  0  0  0  0
    7.3235   -0.7737    2.4927 H   0  0  0  0  0  0  0  0  0  0  0  0
    4.9700   -0.0356    2.3043 H   0  0  0  0  0  0  0  0  0  0  0  0
    4.1180   -1.5000   -1.1203 H   0  0  0  0  0  0  0  0  0  0  0  0
    2.9774   -0.2107    1.4101 H   0  0  0  0  0  0  0  0  0  0  0  0
    2.0954   -1.7222   -1.9793 H   0  0  0  0  0  0  0  0  0  0  0  0
    0.1309   -1.0738   -3.2862 H   0  0  0  0  0  0  0  0  0  0  0  0
   -1.3214    0.7757   -2.5414 H   0  0  0  0  0  0  0  0  0  0  0  0
    1.2087    1.3923    0.8804 H   0  0  0  0  0  0  0  0  0  0  0  0
   -3.4096    2.7355   -1.1586 H   0  0  0  0  0  0  0  0  0  0  0  0
   -5.2812    1.1954   -1.2584 H   0  0  0  0  0  0  0  0  0  0  0  0
   -6.3934   -0.8738   -0.5049 H   0  0  0  0  0  0  0  0  0  0  0  0
   -5.2616   -2.3862    1.0992 H   0  0  0  0  0  0  0  0  0  0  0  0
   -3.0085   -1.8184    1.9588 H   0  0  0  0  0  0  0  0  0  0  0  0
   -1.8847    0.2350    1.2357 H   0  0  0  0  0  0  0  0  0  0  0  0
  1  2  1  0
  2  3  1  0
  3  4  2  0
  3  5  1  0
  5  6  2  0
  6  7  1  0
  7  8  2  0
  8  9  1  0
  9 10  2  0
 10 11  1  0
 11 12  2  0
 11 13  1  0
 13 14  2  0
 13 15  2  0
 13 16  1  0
 16 17  1  0
 17 18  2  0
 18 19  1  0
 19 20  2  0
 20 21  1  0
 21 22  2  0
 12  7  1  0
 22 17  1  0
  1 23  1  0
  2 24  1  0
  5 25  1  0
  6 26  1  0
  8 27  1  0
  9 28  1  0
 10 29  1  0
 12 30  1  0
 16 31  1  0
 18 32  1  0
 19 33  1  0
 20 34  1  0
 21 35  1  0
 22 36  1  0
M  END
$$$$
