
     RDKit          3D

 41 43  0  0  0  0  0  0  0  0999 V2000
    4.4726   -0.9932   -0.8191 C   0  0  0  0  0  0  0  0  0  0  0  0
    3.9911    0.3521   -0.3299 C   0  0  0  0  0  0  0  0  0  0  0  0
    4.9322    1.3545   -0.0062 C   0  0  0  0  0  0  0  0  0  0  0  0
    6.2985    1.1157   -0.1596 O   0  0  0  0  0  0  0  0  0  0  0  0
    4.4990    2.5973    0.4723 C   0  0  0  0  0  0  0  0  0  0  0  0
    3.1394    2.8596    0.6211 C   0  0  0  0  0  0  0  0  0  0  0  0
    2.1980    1.8894    0.2819 C   0  0  0  0  0  0  0  0  0  0  0  0
    2.6041    0.6348   -0.2047 C   0  0  0  0  0  0  0  0  0  0  0  0
    1.5628   -0.3446   -0.5959 C   0  0  0  0  0  0  0  0  0  0  0  0
    1.6811   -0.9789   -1.6797 O   0  0  0  0  0  0  0  0  0  0  0  0
    0.4027   -0.5402    0.2294 N   0  0  0  0  0  0  0  0  0  0  0  0
   -0.6282   -1.4922   -0.0832 C   0  0  0  0  0  0  0  0  0  0  0  0
   -1.9969   -1.1307   -0.0253 C   0  0  0  0  0  0  0  0  0  0  0  0
   -2.4021    0.1906    0.2531 C   0  0  0  0  0  0  0  0  0  0  0  0
   -3.7643    0.5330    0.3017 C   0  0  0  0  0  0  0  0  0  0  0  0
   -4.7294   -0.4589    0.0645 C   0  0  0  0  0  0  0  0  0  0  0  0
   -4.3451   -1.7679   -0.2272 C   0  0  0  0  0  0  0  0  0  0  0  0
   -2.9879   -2.1134   -0.2797 C   0  0  0  0  0  0  0  0  0  0  0  0
   -2.6087   -3.4278   -0.5867 C   0  0  0  0  0  0  0  0  0  0  0  0
   -1.2597   -3.7744   -0.6423 C   0  0  0  0  0  0  0  0  0  0  0  0
   -0.2770   -2.8177   -0.3888 C   0  0  0  0  0  0  0  0  0  0  0  0
   -4.1716    1.9282    0.6064 C   0  0  0  0  0  0  0  0  0  0  0  0
   -3.4333    2.7023    1.5554 N   0  0  0  0  0  0  0  0  0  0  0  0
   -5.1914    2.4693    0.0151 N   0  0  0  0  0  0  0  0  0  0  0  0
    4.4107   -1.0301   -1.9267 H   0  0  0  0  0  0  0  0  0  0  0  0
    5.5213   -1.1925   -0.5155 H   0  0  0  0  0  0  0  0  0  0  0  0
    3.8570   -1.8093   -0.3858 H   0  0  0  0  0  0  0  0  0  0  0  0
    6.9909    1.8203    0.0665 H   0  0  0  0  0  0  0  0  0  0  0  0
    5.2193    3.3643    0.7273 H   0  0  0  0  0  0  0  0  0  0  0  0
    2.8127    3.8243    0.9874 H   0  0  0  0  0  0  0  0  0  0  0  0
    1.1464    2.1319    0.3743 H   0  0  0  0  0  0  0  0  0  0  0  0
    0.3003    0.0274    1.1002 H   0  0  0  0  0  0  0  0  0  0  0  0
   -1.6645    0.9681    0.4011 H   0  0  0  0  0  0  0  0  0  0  0  0
   -5.7855   -0.2269    0.1188 H   0  0  0  0  0  0  0  0  0  0  0  0
   -5.1112   -2.5123   -0.4100 H   0  0  0  0  0  0  0  0  0  0  0  0
   -3.3561   -4.1874   -0.7834 H   0  0  0  0  0  0  0  0  0  0  0  0
   -0.9738   -4.7925   -0.8734 H   0  0  0  0  0  0  0  0  0  0  0  0
    0.7633   -3.1169   -0.4073 H   0  0  0  0  0  0  0  0  0  0  0  0
   -2.6621    2.2783    2.1169 H   0  0  0  0  0  0  0  0  0  0  0  0
   -3.6925    3.6971    1.7399 H   0  0  0  0  0  0  0  0  0  0  0  0
   -5.7619    1.9694   -0.7027 H   0  0  0  0  0  0  0  0  0  0  0  0
  1  2  1  0
  2  3  2  0
  3  4  1  0
  3  5  1  0
  5  6  2  0
  6  7  1  0
  7  8  2  0
  8  9  1  0
  9 10  2  0
  9 11  1  0
 11 12  1  0
 12 13  1  0
 13 14  2  0
 14 15  1  0
 15 16  2  0
 16 17  1  0
 17 18  2  0
 18 19  1  0
 19 20  2  0
 20 21  1  0
 15 22  1  0
 22 23  1  0
 22 24  2  3
  8  2  1  0
 21 12  2  0
 18 13  1  0
  1 25  1  0
  1 26  1  0
  1 27  1  0
  4 28  1  0
  5 29  1  0
  6 30  1  0
  7 31  1  0
 11 32  1  0
 14 33  1  0
 16 34  1  0
 17 35  1  0
 19 36  1  0
 20 37  1  0
 21 38  1  0
 23 39  1  0
 23 40  1  0
 24 41  1  0
M  END
$$$$
