
     RDKit          3D

 54 56  0  0  0  0  0  0  0  0999 V2000
    0.2273   -2.7572   -2.6489 C   0  0  2  0  0  0  0  0  0  0  0  0
   -0.2796   -3.0617   -4.0608 C   0  0  0  0  0  0  0  0  0  0  0  0
   -1.2403   -1.9268   -4.4095 C   0  0  0  0  0  0  0  0  0  0  0  0
   -1.6864   -1.3334   -3.0781 C   0  0  0  0  0  0  0  0  0  0  0  0
   -0.7408   -1.8262   -2.0891 N   0  0  0  0  0  0  0  0  0  0  0  0
   -0.7646   -1.4529   -0.6991 C   0  0  0  0  0  0  0  0  0  0  0  0
   -0.0408   -2.0793    0.1237 O   0  0  0  0  0  0  0  0  0  0  0  0
   -1.6275   -0.3082   -0.2304 C   0  0  0  0  0  0  0  0  0  0  0  0
   -1.5084   -0.0462    1.2767 C   0  0  0  0  0  0  0  0  0  0  0  0
   -2.3126    1.1629    1.6720 C   0  0  0  0  0  0  0  0  0  0  0  0
   -3.6159    1.0178    2.1758 C   0  0  0  0  0  0  0  0  0  0  0  0
   -4.3657    2.1461    2.5229 C   0  0  0  0  0  0  0  0  0  0  0  0
   -3.8243    3.4246    2.3608 C   0  0  0  0  0  0  0  0  0  0  0  0
   -2.5342    3.5773    1.8457 C   0  0  0  0  0  0  0  0  0  0  0  0
   -1.7820    2.4521    1.4961 C   0  0  0  0  0  0  0  0  0  0  0  0
    1.5906   -2.1141   -2.6586 C   0  0  0  0  0  0  0  0  0  0  0  0
    1.8342   -1.1729   -3.4630 O   0  0  0  0  0  0  0  0  0  0  0  0
    2.5760   -2.5080   -1.6940 N   0  0  0  0  0  0  0  0  0  0  0  0
    3.6697   -1.6238   -1.3019 C   0  0  0  0  0  0  0  0  0  0  0  0
    3.1823   -0.6409   -0.2725 C   0  0  0  0  0  0  0  0  0  0  0  0
    3.1848   -0.9845    1.0871 C   0  0  0  0  0  0  0  0  0  0  0  0
    2.6911   -0.0919    2.0429 C   0  0  0  0  0  0  0  0  0  0  0  0
    2.1726    1.1561    1.6534 C   0  0  0  0  0  0  0  0  0  0  0  0
    2.1545    1.4884    0.2879 C   0  0  0  0  0  0  0  0  0  0  0  0
    2.6512    0.5961   -0.6665 C   0  0  0  0  0  0  0  0  0  0  0  0
    1.6405    2.1079    2.6616 C   0  0  0  0  0  0  0  0  0  0  0  0
    1.8149    3.5159    2.4844 N   0  0  0  0  0  0  0  0  0  0  0  0
    0.9924    1.6844    3.7024 N   0  0  0  0  0  0  0  0  0  0  0  0
    0.2431   -3.6964   -2.0529 H   0  0  0  0  0  0  0  0  0  0  0  0
    0.5392   -3.1482   -4.8089 H   0  0  0  0  0  0  0  0  0  0  0  0
   -0.8437   -4.0205   -4.0478 H   0  0  0  0  0  0  0  0  0  0  0  0
   -0.7009   -1.1545   -5.0008 H   0  0  0  0  0  0  0  0  0  0  0  0
   -2.1068   -2.2975   -4.9990 H   0  0  0  0  0  0  0  0  0  0  0  0
   -2.7100   -1.6823   -2.8214 H   0  0  0  0  0  0  0  0  0  0  0  0
   -1.6628   -0.2232   -3.1218 H   0  0  0  0  0  0  0  0  0  0  0  0
   -1.3213    0.6054   -0.7847 H   0  0  0  0  0  0  0  0  0  0  0  0
   -2.6876   -0.5318   -0.4777 H   0  0  0  0  0  0  0  0  0  0  0  0
   -1.8574   -0.9396    1.8400 H   0  0  0  0  0  0  0  0  0  0  0  0
   -0.4444    0.1195    1.5460 H   0  0  0  0  0  0  0  0  0  0  0  0
   -4.0499    0.0335    2.3004 H   0  0  0  0  0  0  0  0  0  0  0  0
   -5.3676    2.0295    2.9155 H   0  0  0  0  0  0  0  0  0  0  0  0
   -4.4063    4.2966    2.6295 H   0  0  0  0  0  0  0  0  0  0  0  0
   -2.1184    4.5677    1.7132 H   0  0  0  0  0  0  0  0  0  0  0  0
   -0.7894    2.5844    1.0850 H   0  0  0  0  0  0  0  0  0  0  0  0
    2.3980   -3.3527   -1.1050 H   0  0  0  0  0  0  0  0  0  0  0  0
    4.4989   -2.2329   -0.8810 H   0  0  0  0  0  0  0  0  0  0  0  0
    4.0800   -1.0954   -2.1900 H   0  0  0  0  0  0  0  0  0  0  0  0
    3.5713   -1.9440    1.4079 H   0  0  0  0  0  0  0  0  0  0  0  0
    2.7298   -0.3741    3.0872 H   0  0  0  0  0  0  0  0  0  0  0  0
    1.7349    2.4288   -0.0461 H   0  0  0  0  0  0  0  0  0  0  0  0
    2.6161    0.8688   -1.7137 H   0  0  0  0  0  0  0  0  0  0  0  0
    1.3930    4.1885    3.1628 H   0  0  0  0  0  0  0  0  0  0  0  0
    2.4002    3.8955    1.7079 H   0  0  0  0  0  0  0  0  0  0  0  0
    0.8031    0.6733    3.8815 H   0  0  0  0  0  0  0  0  0  0  0  0
  1  2  1  0
  2  3  1  0
  3  4  1  0
  4  5  1  0
  5  6  1  0
  6  7  2  0
  6  8  1  0
  8  9  1  0
  9 10  1  0
 10 11  2  0
 11 12  1  0
 12 13  2  0
 13 14  1  0
 14 15  2  0
  1 16  1  0
 16 17  2  0
 16 18  1  0
 18 19  1  0
 19 20  1  0
 20 21  2  0
 21 22  1  0
 22 23  2  0
 23 24  1  0
 24 25  2  0
 23 26  1  0
 26 27  1  0
 26 28  2  3
  5  1  1  0
 15 10  1  0
 25 20  1  0
  1 29  1  1
  2 30  1  0
  2 31  1  0
  3 32  1  0
  3 33  1  0
  4 34  1  0
  4 35  1  0
  8 36  1  0
  8 37  1  0
  9 38  1  0
  9 39  1  0
 11 40  1  0
 12 41  1  0
 13 42  1  0
 14 43  1  0
 15 44  1  0
 18 45  1  0
 19 46  1  0
 19 47  1  0
 21 48  1  0
 22 49  1  0
 24 50  1  0
 25 51  1  0
 27 52  1  0
 27 53  1  0
 28 54  1  0
M  END
$$$$
