
     RDKit          3D

 27 27  0  0  0  0  0  0  0  0999 V2000
    2.7561   -0.0828    0.1180 C   0  0  1  0  0  0  0  0  0  0  0  0
    3.7788    0.8199   -0.4164 N   0  0  0  0  0  0  0  0  0  0  0  0
    1.3787    0.2452   -0.4776 C   0  0  0  0  0  0  0  0  0  0  0  0
    0.7503    1.8384    0.1665 S   0  0  0  0  0  0  0  0  0  0  0  0
   -0.7437    1.8966   -0.8851 C   0  0  0  0  0  0  0  0  0  0  0  0
   -1.7789    0.9192   -0.4008 C   0  0  0  0  0  0  0  0  0  0  0  0
   -2.4818    1.1693    0.7892 C   0  0  0  0  0  0  0  0  0  0  0  0
   -3.4318    0.2540    1.2524 C   0  0  0  0  0  0  0  0  0  0  0  0
   -3.6854   -0.9183    0.5330 C   0  0  0  0  0  0  0  0  0  0  0  0
   -4.9814   -2.1686    1.1688 Br  0  0  0  0  0  0  0  0  0  0  0  0
   -2.9871   -1.1750   -0.6512 C   0  0  0  0  0  0  0  0  0  0  0  0
   -2.0370   -0.2613   -1.1175 C   0  0  0  0  0  0  0  0  0  0  0  0
    3.1176   -1.5059   -0.2033 C   0  0  0  0  0  0  0  0  0  0  0  0
    3.0856   -2.4707    0.7987 O   0  0  0  0  0  0  0  0  0  0  0  0
    3.4234   -1.8340   -1.3817 O   0  0  0  0  0  0  0  0  0  0  0  0
    2.7082    0.0270    1.2255 H   0  0  0  0  0  0  0  0  0  0  0  0
    3.5787    1.7896   -0.0810 H   0  0  0  0  0  0  0  0  0  0  0  0
    4.7001    0.5606    0.0069 H   0  0  0  0  0  0  0  0  0  0  0  0
    1.4494    0.2865   -1.5863 H   0  0  0  0  0  0  0  0  0  0  0  0
    0.6583   -0.5523   -0.1951 H   0  0  0  0  0  0  0  0  0  0  0  0
   -1.1634    2.9235   -0.8356 H   0  0  0  0  0  0  0  0  0  0  0  0
   -0.4722    1.7085   -1.9461 H   0  0  0  0  0  0  0  0  0  0  0  0
   -2.2914    2.0713    1.3577 H   0  0  0  0  0  0  0  0  0  0  0  0
   -3.9686    0.4555    2.1705 H   0  0  0  0  0  0  0  0  0  0  0  0
   -3.1784   -2.0824   -1.2095 H   0  0  0  0  0  0  0  0  0  0  0  0
   -1.4997   -0.4771   -2.0327 H   0  0  0  0  0  0  0  0  0  0  0  0
    3.3156   -3.4365    0.5973 H   0  0  0  0  0  0  0  0  0  0  0  0
  1  2  1  0
  1  3  1  0
  3  4  1  0
  4  5  1  0
  5  6  1  0
  6  7  2  0
  7  8  1  0
  8  9  2  0
  9 10  1  0
  9 11  1  0
 11 12  2  0
  1 13  1  0
 13 14  1  0
 13 15  2  0
 12  6  1  0
  1 16  1  1
  2 17  1  0
  2 18  1  0
  3 19  1  0
  3 20  1  0
  5 21  1  0
  5 22  1  0
  7 23  1  0
  8 24  1  0
 11 25  1  0
 12 26  1  0
 14 27  1  0
M  END
$$$$
