
     RDKit          3D

 80 85  0  0  0  0  0  0  0  0999 V2000
   -1.2770    0.2825    1.5719 C   0  0  1  0  0  0  0  0  0  0  0  0
    0.1247   -0.2409    1.2073 C   0  0  0  0  0  0  0  0  0  0  0  0
    1.0521    0.9145    0.8258 C   0  0  1  0  0  0  0  0  0  0  0  0
    2.3780    0.4018    0.6800 O   0  0  0  0  0  0  0  0  0  0  0  0
    3.5331    1.1924    0.7345 C   0  0  0  0  0  0  0  0  0  0  0  0
    3.4523    2.4116    1.0500 O   0  0  0  0  0  0  0  0  0  0  0  0
    4.8506    0.5887    0.4306 C   0  0  0  0  0  0  0  0  0  0  0  0
    6.0214    1.3581    0.4894 C   0  0  0  0  0  0  0  0  0  0  0  0
    7.2788    0.7933    0.1980 C   0  0  0  0  0  0  0  0  0  0  0  0
    8.4476    1.5692    0.2590 O   0  0  0  0  0  0  0  0  0  0  0  0
    8.4974    2.9500    0.6046 C   0  0  0  0  0  0  0  0  0  0  0  0
    7.3560   -0.5770   -0.1609 C   0  0  0  0  0  0  0  0  0  0  0  0
    8.5611   -1.2373   -0.4704 O   0  0  0  0  0  0  0  0  0  0  0  0
    9.8652   -0.6671   -0.4767 C   0  0  0  0  0  0  0  0  0  0  0  0
    6.1836   -1.3475   -0.2211 C   0  0  0  0  0  0  0  0  0  0  0  0
    6.2984   -2.7006   -0.5814 O   0  0  0  0  0  0  0  0  0  0  0  0
    5.2050   -3.6068   -0.6875 C   0  0  0  0  0  0  0  0  0  0  0  0
    4.9401   -0.7626    0.0741 C   0  0  0  0  0  0  0  0  0  0  0  0
    0.5973    1.5939   -0.4911 C   0  0  2  0  0  0  0  0  0  0  0  0
    1.1002    2.9219   -0.4938 O   0  0  0  0  0  0  0  0  0  0  0  0
    1.5257    3.2941   -1.7871 C   0  0  0  0  0  0  0  0  0  0  0  0
   -0.9577    1.6279   -0.6784 C   0  0  1  0  0  0  0  0  0  0  0  0
   -1.3862    0.6915   -1.7850 C   0  0  0  0  0  0  0  0  0  0  0  0
   -2.0307    1.1493   -2.7691 O   0  0  0  0  0  0  0  0  0  0  0  0
   -1.0672   -0.6676   -1.7279 O   0  0  0  0  0  0  0  0  0  0  0  0
   -1.4945   -1.5997   -2.7128 C   0  0  0  0  0  0  0  0  0  0  0  0
   -1.7495    1.4536    0.6598 C   0  0  1  0  0  0  0  0  0  0  0  0
   -3.2853    1.4544    0.4977 C   0  0  0  0  0  0  0  0  0  0  0  0
   -3.8484    0.0980   -0.0005 C   0  0  1  0  0  0  0  0  0  0  0  0
   -3.0135   -1.0801    0.4037 N   0  0  0  0  0  0  0  0  0  0  0  0
   -3.6743   -2.4282    0.3932 C   0  0  0  0  0  0  0  0  0  0  0  0
   -5.0684   -2.4838   -0.2643 C   0  0  0  0  0  0  0  0  0  0  0  0
   -5.8627   -1.3278    0.2221 C   0  0  0  0  0  0  0  0  0  0  0  0
   -5.2886   -0.0944    0.3736 C   0  0  0  0  0  0  0  0  0  0  0  0
   -6.2286    0.8655    0.5475 N   0  0  0  0  0  0  0  0  0  0  0  0
   -7.4066    0.2101    0.5279 C   0  0  0  0  0  0  0  0  0  0  0  0
   -8.6827    0.7650    0.6124 C   0  0  0  0  0  0  0  0  0  0  0  0
   -9.7861   -0.0992    0.4831 C   0  0  0  0  0  0  0  0  0  0  0  0
   -9.5927   -1.4806    0.2552 C   0  0  0  0  0  0  0  0  0  0  0  0
   -8.2940   -2.0130    0.1573 C   0  0  0  0  0  0  0  0  0  0  0  0
   -7.2224   -1.1362    0.3133 C   0  0  0  0  0  0  0  0  0  0  0  0
   -2.3094   -0.8611    1.6818 C   0  0  0  0  0  0  0  0  0  0  0  0
   -1.1838    0.6970    2.6030 H   0  0  0  0  0  0  0  0  0  0  0  0
    0.0800   -0.9824    0.3848 H   0  0  0  0  0  0  0  0  0  0  0  0
    0.5506   -0.7685    2.0895 H   0  0  0  0  0  0  0  0  0  0  0  0
    1.0338    1.6522    1.6612 H   0  0  0  0  0  0  0  0  0  0  0  0
    5.9489    2.4014    0.7634 H   0  0  0  0  0  0  0  0  0  0  0  0
    9.5514    3.2935    0.5686 H   0  0  0  0  0  0  0  0  0  0  0  0
    7.9053    3.5473   -0.1206 H   0  0  0  0  0  0  0  0  0  0  0  0
    8.1107    3.1006    1.6346 H   0  0  0  0  0  0  0  0  0  0  0  0
    9.9244    0.1504   -1.2256 H   0  0  0  0  0  0  0  0  0  0  0  0
   10.5969   -1.4504   -0.7620 H   0  0  0  0  0  0  0  0  0  0  0  0
   10.1297   -0.2998    0.5371 H   0  0  0  0  0  0  0  0  0  0  0  0
    4.4898   -3.2539   -1.4604 H   0  0  0  0  0  0  0  0  0  0  0  0
    5.5884   -4.6033   -0.9880 H   0  0  0  0  0  0  0  0  0  0  0  0
    4.6930   -3.7045    0.2931 H   0  0  0  0  0  0  0  0  0  0  0  0
    4.0392   -1.3585    0.0257 H   0  0  0  0  0  0  0  0  0  0  0  0
    1.0495    0.9807   -1.3120 H   0  0  0  0  0  0  0  0  0  0  0  0
    1.7989    4.3690   -1.7746 H   0  0  0  0  0  0  0  0  0  0  0  0
    0.7168    3.1580   -2.5392 H   0  0  0  0  0  0  0  0  0  0  0  0
    2.4301    2.7178   -2.0820 H   0  0  0  0  0  0  0  0  0  0  0  0
   -1.2195    2.6496   -1.0390 H   0  0  0  0  0  0  0  0  0  0  0  0
   -2.6040   -1.6235   -2.7567 H   0  0  0  0  0  0  0  0  0  0  0  0
   -1.1253   -2.6098   -2.4413 H   0  0  0  0  0  0  0  0  0  0  0  0
   -1.0838   -1.3193   -3.7056 H   0  0  0  0  0  0  0  0  0  0  0  0
   -1.5220    2.3862    1.2278 H   0  0  0  0  0  0  0  0  0  0  0  0
   -3.5958    2.2694   -0.1924 H   0  0  0  0  0  0  0  0  0  0  0  0
   -3.7252    1.6885    1.4935 H   0  0  0  0  0  0  0  0  0  0  0  0
   -3.8476    0.1326   -1.1091 H   0  0  0  0  0  0  0  0  0  0  0  0
   -3.8006   -2.8207    1.4292 H   0  0  0  0  0  0  0  0  0  0  0  0
   -3.0075   -3.1410   -0.1366 H   0  0  0  0  0  0  0  0  0  0  0  0
   -4.9663   -2.4169   -1.3688 H   0  0  0  0  0  0  0  0  0  0  0  0
   -5.5742   -3.4383   -0.0049 H   0  0  0  0  0  0  0  0  0  0  0  0
   -6.0852    1.8986    0.5996 H   0  0  0  0  0  0  0  0  0  0  0  0
   -8.8220    1.8277    0.7634 H   0  0  0  0  0  0  0  0  0  0  0  0
  -10.7902    0.2993    0.5470 H   0  0  0  0  0  0  0  0  0  0  0  0
  -10.4497   -2.1324    0.1462 H   0  0  0  0  0  0  0  0  0  0  0  0
   -8.1366   -3.0666   -0.0335 H   0  0  0  0  0  0  0  0  0  0  0  0
   -3.0527   -0.6166    2.4750 H   0  0  0  0  0  0  0  0  0  0  0  0
   -1.7872   -1.7896    2.0084 H   0  0  0  0  0  0  0  0  0  0  0  0
  1  2  1  0
  2  3  1  0
  3  4  1  0
  4  5  1  0
  5  6  2  0
  5  7  1  0
  7  8  2  0
  8  9  1  0
  9 10  1  0
 10 11  1  0
  9 12  2  0
 12 13  1  0
 13 14  1  0
 12 15  1  0
 15 16  1  0
 16 17  1  0
 15 18  2  0
  3 19  1  0
 19 20  1  0
 20 21  1  0
 19 22  1  0
 22 23  1  0
 23 24  2  0
 23 25  1  0
 25 26  1  0
 22 27  1  0
 27 28  1  0
 28 29  1  0
 29 30  1  0
 30 31  1  0
 31 32  1  0
 32 33  1  0
 33 34  2  0
 34 35  1  0
 35 36  1  0
 36 37  2  0
 37 38  1  0
 38 39  2  0
 39 40  1  0
 40 41  2  0
 30 42  1  0
 27  1  1  0
 34 29  1  0
 41 36  1  0
 42  1  1  0
 18  7  1  0
 41 33  1  0
  1 43  1  1
  2 44  1  0
  2 45  1  0
  3 46  1  1
  8 47  1  0
 11 48  1  0
 11 49  1  0
 11 50  1  0
 14 51  1  0
 14 52  1  0
 14 53  1  0
 17 54  1  0
 17 55  1  0
 17 56  1  0
 18 57  1  0
 19 58  1  6
 21 59  1  0
 21 60  1  0
 21 61  1  0
 22 62  1  6
 26 63  1  0
 26 64  1  0
 26 65  1  0
 27 66  1  1
 28 67  1  0
 28 68  1  0
 29 69  1  6
 31 70  1  0
 31 71  1  0
 32 72  1  0
 32 73  1  0
 35 74  1  0
 37 75  1  0
 38 76  1  0
 39 77  1  0
 40 78  1  0
 42 79  1  0
 42 80  1  0
M  END
$$$$
