
     RDKit          3D

 30 32  0  0  0  0  0  0  0  0999 V2000
   -6.5916    0.8683   -0.4631 O   0  0  0  0  0  0  0  0  0  0  0  0
   -5.2856    1.3315   -0.3254 C   0  0  0  0  0  0  0  0  0  0  0  0
   -5.0812    2.5682   -0.1887 O   0  0  0  0  0  0  0  0  0  0  0  0
   -4.1514    0.3807   -0.3397 C   0  0  0  0  0  0  0  0  0  0  0  0
   -4.3849   -0.9961   -0.4923 C   0  0  0  0  0  0  0  0  0  0  0  0
   -3.3177   -1.8963   -0.5063 C   0  0  0  0  0  0  0  0  0  0  0  0
   -2.0070   -1.4359   -0.3686 C   0  0  0  0  0  0  0  0  0  0  0  0
   -1.7491   -0.0639   -0.2148 C   0  0  0  0  0  0  0  0  0  0  0  0
   -2.8276    0.8391   -0.2013 C   0  0  0  0  0  0  0  0  0  0  0  0
   -0.3602    0.4234   -0.0689 C   0  0  0  0  0  0  0  0  0  0  0  0
   -0.0305    1.7217    0.0827 N   0  0  0  0  0  0  0  0  0  0  0  0
    1.2639    1.7307    0.1746 O   0  0  0  0  0  0  0  0  0  0  0  0
    1.7247    0.5062    0.0859 C   0  0  0  0  0  0  0  0  0  0  0  0
    0.7234   -0.3821   -0.0724 N   0  0  0  0  0  0  0  0  0  0  0  0
    3.1598    0.1532    0.1519 C   0  0  0  0  0  0  0  0  0  0  0  0
    4.1162    1.1707    0.3198 C   0  0  0  0  0  0  0  0  0  0  0  0
    5.4777    0.8604    0.3848 C   0  0  0  0  0  0  0  0  0  0  0  0
    5.8992   -0.4665    0.2832 C   0  0  0  0  0  0  0  0  0  0  0  0
    4.9601   -1.4864    0.1163 C   0  0  0  0  0  0  0  0  0  0  0  0
    3.5953   -1.1849    0.0501 C   0  0  0  0  0  0  0  0  0  0  0  0
    2.7102   -2.2007   -0.1126 F   0  0  0  0  0  0  0  0  0  0  0  0
   -7.3751    1.5104   -0.4547 H   0  0  0  0  0  0  0  0  0  0  0  0
   -5.3917   -1.3793   -0.6010 H   0  0  0  0  0  0  0  0  0  0  0  0
   -3.5073   -2.9554   -0.6244 H   0  0  0  0  0  0  0  0  0  0  0  0
   -1.1964   -2.1538   -0.3826 H   0  0  0  0  0  0  0  0  0  0  0  0
   -2.6365    1.8986   -0.0831 H   0  0  0  0  0  0  0  0  0  0  0  0
    3.8117    2.2068    0.4009 H   0  0  0  0  0  0  0  0  0  0  0  0
    6.2065    1.6501    0.5142 H   0  0  0  0  0  0  0  0  0  0  0  0
    6.9538   -0.7048    0.3338 H   0  0  0  0  0  0  0  0  0  0  0  0
    5.2912   -2.5141    0.0379 H   0  0  0  0  0  0  0  0  0  0  0  0
  1  2  1  0
  2  3  2  0
  2  4  1  0
  4  5  2  0
  5  6  1  0
  6  7  2  0
  7  8  1  0
  8  9  2  0
  8 10  1  0
 10 11  2  0
 11 12  1  0
 12 13  1  0
 13 14  2  0
 13 15  1  0
 15 16  2  0
 16 17  1  0
 17 18  2  0
 18 19  1  0
 19 20  2  0
 20 21  1  0
  9  4  1  0
 14 10  1  0
 20 15  1  0
  1 22  1  0
  5 23  1  0
  6 24  1  0
  7 25  1  0
  9 26  1  0
 16 27  1  0
 17 28  1  0
 18 29  1  0
 19 30  1  0
M  END
$$$$
