
     RDKit          3D

 42 45  0  0  0  0  0  0  0  0999 V2000
    1.3667    3.1886   -2.2496 O   0  0  0  0  0  0  0  0  0  0  0  0
    1.9591    1.9779   -1.8764 C   0  0  0  0  0  0  0  0  0  0  0  0
    1.2466    0.9259   -1.2321 C   0  0  0  0  0  0  0  0  0  0  0  0
   -0.2593    1.0256   -1.0103 C   0  0  0  0  0  0  0  0  0  0  0  0
   -0.6421    1.2551    0.4500 C   0  0  0  0  0  0  0  0  0  0  0  0
   -1.6701    0.5044    1.0774 C   0  0  0  0  0  0  0  0  0  0  0  0
   -1.9308    0.6929    2.4021 N   0  0  0  0  0  0  0  0  0  0  0  0
   -1.2635    1.6260    3.1298 C   0  0  0  0  0  0  0  0  0  0  0  0
   -1.6143    1.8316    4.7185 S   0  0  0  0  0  0  0  0  0  0  0  0
   -0.3224    2.4047    2.5367 N   0  0  0  0  0  0  0  0  0  0  0  0
   -0.0070    2.2505    1.2238 C   0  0  0  0  0  0  0  0  0  0  0  0
    0.8576    3.0103    0.7114 O   0  0  0  0  0  0  0  0  0  0  0  0
   -2.4931   -0.4795    0.3376 C   0  0  0  0  0  0  0  0  0  0  0  0
   -2.5210   -1.8218    0.7485 C   0  0  0  0  0  0  0  0  0  0  0  0
   -3.3121   -2.7504    0.0652 C   0  0  0  0  0  0  0  0  0  0  0  0
   -4.0898   -2.3425   -1.0223 C   0  0  0  0  0  0  0  0  0  0  0  0
   -4.0813   -1.0042   -1.4253 C   0  0  0  0  0  0  0  0  0  0  0  0
   -3.2912   -0.0726   -0.7449 C   0  0  0  0  0  0  0  0  0  0  0  0
    1.9649   -0.2428   -0.8315 C   0  0  0  0  0  0  0  0  0  0  0  0
    1.3414   -1.3228   -0.1635 C   0  0  0  0  0  0  0  0  0  0  0  0
    2.0722   -2.4512    0.2140 C   0  0  0  0  0  0  0  0  0  0  0  0
    3.4343   -2.5327   -0.0650 C   0  0  0  0  0  0  0  0  0  0  0  0
    4.0754   -1.4853   -0.7241 C   0  0  0  0  0  0  0  0  0  0  0  0
    3.3555   -0.3426   -1.1094 C   0  0  0  0  0  0  0  0  0  0  0  0
    4.0137    0.6949   -1.7731 C   0  0  0  0  0  0  0  0  0  0  0  0
    3.3205    1.8375   -2.1505 C   0  0  0  0  0  0  0  0  0  0  0  0
    0.4467    3.4912   -1.9646 H   0  0  0  0  0  0  0  0  0  0  0  0
   -0.6961    0.0875   -1.4057 H   0  0  0  0  0  0  0  0  0  0  0  0
   -0.7426    1.8008   -1.6306 H   0  0  0  0  0  0  0  0  0  0  0  0
   -2.6775    0.1241    2.8644 H   0  0  0  0  0  0  0  0  0  0  0  0
    0.1712    3.1382    3.0959 H   0  0  0  0  0  0  0  0  0  0  0  0
   -1.9218   -2.1497    1.5892 H   0  0  0  0  0  0  0  0  0  0  0  0
   -3.3233   -3.7860    0.3796 H   0  0  0  0  0  0  0  0  0  0  0  0
   -4.7022   -3.0624   -1.5496 H   0  0  0  0  0  0  0  0  0  0  0  0
   -4.6896   -0.6880   -2.2627 H   0  0  0  0  0  0  0  0  0  0  0  0
   -3.3007    0.9637   -1.0597 H   0  0  0  0  0  0  0  0  0  0  0  0
    0.2920   -1.3151    0.0799 H   0  0  0  0  0  0  0  0  0  0  0  0
    1.5781   -3.2671    0.7260 H   0  0  0  0  0  0  0  0  0  0  0  0
    3.9949   -3.4103    0.2298 H   0  0  0  0  0  0  0  0  0  0  0  0
    5.1355   -1.5681   -0.9334 H   0  0  0  0  0  0  0  0  0  0  0  0
    5.0725    0.6264   -1.9945 H   0  0  0  0  0  0  0  0  0  0  0  0
    3.8531    2.6375   -2.6498 H   0  0  0  0  0  0  0  0  0  0  0  0
  1  2  1  0
  2  3  2  0
  3  4  1  0
  4  5  1  0
  5  6  2  0
  6  7  1  0
  7  8  1  0
  8  9  2  0
  8 10  1  0
 10 11  1  0
 11 12  2  0
  6 13  1  0
 13 14  2  0
 14 15  1  0
 15 16  2  0
 16 17  1  0
 17 18  2  0
  3 19  1  0
 19 20  2  0
 20 21  1  0
 21 22  2  0
 22 23  1  0
 23 24  2  0
 24 25  1  0
 25 26  2  0
 26  2  1  0
 11  5  1  0
 18 13  1  0
 24 19  1  0
  1 27  1  0
  4 28  1  0
  4 29  1  0
  7 30  1  0
 10 31  1  0
 14 32  1  0
 15 33  1  0
 16 34  1  0
 17 35  1  0
 18 36  1  0
 20 37  1  0
 21 38  1  0
 22 39  1  0
 23 40  1  0
 25 41  1  0
 26 42  1  0
M  END
$$$$
