
     RDKit          3D

 33 33  0  0  0  0  0  0  0  0999 V2000
    4.9046   -0.9018   -1.2449 N   0  0  0  0  0  0  0  0  0  0  0  0
    3.9815   -0.0381   -0.5036 C   0  0  0  0  0  0  0  0  0  0  0  0
    4.2584   -0.1237    1.0039 C   0  0  0  0  0  0  0  0  0  0  0  0
    5.5508    0.3381    1.2929 O   0  0  0  0  0  0  0  0  0  0  0  0
    2.5453   -0.4040   -0.7916 C   0  0  0  0  0  0  0  0  0  0  0  0
    2.1757   -1.6079   -0.7201 O   0  0  0  0  0  0  0  0  0  0  0  0
    1.5891    0.6152   -1.0994 N   0  0  0  0  0  0  0  0  0  0  0  0
    0.2360    0.2857   -1.2877 N   0  0  0  0  0  0  0  0  0  0  0  0
   -0.5168    0.7445   -0.1163 C   0  0  0  0  0  0  0  0  0  0  0  0
   -1.9663    0.2958   -0.1504 C   0  0  0  0  0  0  0  0  0  0  0  0
   -2.9193    0.8765    0.7247 C   0  0  0  0  0  0  0  0  0  0  0  0
   -2.5668    1.8566    1.6573 O   0  0  0  0  0  0  0  0  0  0  0  0
   -4.2600    0.4632    0.6812 C   0  0  0  0  0  0  0  0  0  0  0  0
   -5.1842    1.0683    1.5341 O   0  0  0  0  0  0  0  0  0  0  0  0
   -4.6589   -0.5508   -0.2031 C   0  0  0  0  0  0  0  0  0  0  0  0
   -5.9915   -0.9584   -0.2450 O   0  0  0  0  0  0  0  0  0  0  0  0
   -3.7139   -1.1561   -1.0358 C   0  0  0  0  0  0  0  0  0  0  0  0
   -2.3811   -0.7462   -1.0050 C   0  0  0  0  0  0  0  0  0  0  0  0
    4.7028   -0.8090   -2.2673 H   0  0  0  0  0  0  0  0  0  0  0  0
    4.7424   -1.9014   -0.9811 H   0  0  0  0  0  0  0  0  0  0  0  0
    4.1584    1.0122   -0.8249 H   0  0  0  0  0  0  0  0  0  0  0  0
    4.1233   -1.1679    1.3709 H   0  0  0  0  0  0  0  0  0  0  0  0
    3.5318    0.5189    1.5466 H   0  0  0  0  0  0  0  0  0  0  0  0
    6.1702   -0.4190    1.1236 H   0  0  0  0  0  0  0  0  0  0  0  0
    1.8848    1.6185   -1.1132 H   0  0  0  0  0  0  0  0  0  0  0  0
   -0.0977    0.8196   -2.1242 H   0  0  0  0  0  0  0  0  0  0  0  0
   -0.4729    1.8560   -0.0805 H   0  0  0  0  0  0  0  0  0  0  0  0
   -0.0523    0.3379    0.8093 H   0  0  0  0  0  0  0  0  0  0  0  0
   -1.6158    2.1613    1.8169 H   0  0  0  0  0  0  0  0  0  0  0  0
   -6.1623    0.8051    1.5446 H   0  0  0  0  0  0  0  0  0  0  0  0
   -6.3038   -1.6899   -0.8729 H   0  0  0  0  0  0  0  0  0  0  0  0
   -4.0118   -1.9494   -1.7098 H   0  0  0  0  0  0  0  0  0  0  0  0
   -1.6798   -1.2497   -1.6573 H   0  0  0  0  0  0  0  0  0  0  0  0
  1  2  1  0
  2  3  1  0
  3  4  1  0
  2  5  1  0
  5  6  2  0
  5  7  1  0
  7  8  1  0
  8  9  1  0
  9 10  1  0
 10 11  2  0
 11 12  1  0
 11 13  1  0
 13 14  1  0
 13 15  2  0
 15 16  1  0
 15 17  1  0
 17 18  2  0
 18 10  1  0
  1 19  1  0
  1 20  1  0
  2 21  1  0
  3 22  1  0
  3 23  1  0
  4 24  1  0
  7 25  1  0
  8 26  1  0
  9 27  1  0
  9 28  1  0
 12 29  1  0
 14 30  1  0
 16 31  1  0
 17 32  1  0
 18 33  1  0
M  END
$$$$
