
     RDKit          3D

 32 34  0  0  0  0  0  0  0  0999 V2000
   -6.6778   -1.7000   -1.1215 O   0  0  0  0  0  0  0  0  0  0  0  0
   -6.2517   -0.5206   -0.5158 C   0  0  0  0  0  0  0  0  0  0  0  0
   -7.1046    0.3504   -0.1934 O   0  0  0  0  0  0  0  0  0  0  0  0
   -4.8132   -0.2941   -0.2541 C   0  0  0  0  0  0  0  0  0  0  0  0
   -3.8650   -1.2653   -0.6140 C   0  0  0  0  0  0  0  0  0  0  0  0
   -2.5051   -1.0548   -0.3685 C   0  0  0  0  0  0  0  0  0  0  0  0
   -2.0633    0.1304    0.2421 C   0  0  0  0  0  0  0  0  0  0  0  0
   -3.0128    1.1033    0.6021 C   0  0  0  0  0  0  0  0  0  0  0  0
   -4.3729    0.8926    0.3564 C   0  0  0  0  0  0  0  0  0  0  0  0
   -0.6163    0.3292    0.4910 C   0  0  0  0  0  0  0  0  0  0  0  0
   -0.0137    1.4226    1.0926 C   0  0  0  0  0  0  0  0  0  0  0  0
    1.3373    1.1513    1.1073 C   0  0  0  0  0  0  0  0  0  0  0  0
    1.4823   -0.0869    0.5060 C   0  0  0  0  0  0  0  0  0  0  0  0
    0.3034   -0.5506    0.1615 O   0  0  0  0  0  0  0  0  0  0  0  0
    2.7264   -0.8534    0.3060 C   0  0  0  0  0  0  0  0  0  0  0  0
    3.9355   -0.3166    0.0763 C   0  0  0  0  0  0  0  0  0  0  0  0
    4.2616    1.4405   -0.1840 S   0  0  0  0  0  0  0  0  0  0  0  0
    5.9599    1.0059   -0.5704 C   0  0  0  0  0  0  0  0  0  0  0  0
    6.8357    1.8969   -0.9031 N   0  0  0  0  0  0  0  0  0  0  0  0
    6.2808   -0.3766   -0.4908 N   0  0  0  0  0  0  0  0  0  0  0  0
    5.1371   -1.1267   -0.1298 C   0  0  0  0  0  0  0  0  0  0  0  0
    5.1711   -2.3803   -0.0071 O   0  0  0  0  0  0  0  0  0  0  0  0
   -7.6603   -1.8651   -1.3051 H   0  0  0  0  0  0  0  0  0  0  0  0
   -4.1721   -2.1901   -1.0862 H   0  0  0  0  0  0  0  0  0  0  0  0
   -1.7979   -1.8225   -0.6575 H   0  0  0  0  0  0  0  0  0  0  0  0
   -2.7135    2.0293    1.0725 H   0  0  0  0  0  0  0  0  0  0  0  0
   -5.0797    1.6607    0.6451 H   0  0  0  0  0  0  0  0  0  0  0  0
   -0.4873    2.3073    1.4945 H   0  0  0  0  0  0  0  0  0  0  0  0
    2.1055    1.7697    1.5497 H   0  0  0  0  0  0  0  0  0  0  0  0
    2.6276   -1.9321    0.3058 H   0  0  0  0  0  0  0  0  0  0  0  0
    7.8207    1.6314   -1.1267 H   0  0  0  0  0  0  0  0  0  0  0  0
    7.2222   -0.7858   -0.6841 H   0  0  0  0  0  0  0  0  0  0  0  0
  1  2  1  0
  2  3  2  0
  2  4  1  0
  4  5  2  0
  5  6  1  0
  6  7  2  0
  7  8  1  0
  8  9  2  0
  7 10  1  0
 10 11  2  0
 11 12  1  0
 12 13  2  0
 13 14  1  0
 13 15  1  0
 15 16  2  0
 16 17  1  0
 17 18  1  0
 18 19  2  3
 18 20  1  0
 20 21  1  0
 21 22  2  0
  9  4  1  0
 14 10  1  0
 21 16  1  0
  1 23  1  0
  5 24  1  0
  6 25  1  0
  8 26  1  0
  9 27  1  0
 11 28  1  0
 12 29  1  0
 15 30  1  0
 19 31  1  0
 20 32  1  0
M  END
$$$$
