
     RDKit          3D

 44 47  0  0  0  0  0  0  0  0999 V2000
    5.2050    1.1894    0.2589 C   0  0  0  0  0  0  0  0  0  0  0  0
    4.0122    1.9767    0.6143 N   0  0  0  0  0  0  0  0  0  0  0  0
    3.3095    2.5104   -0.5687 C   0  0  0  0  0  0  0  0  0  0  0  0
    2.5549    1.4260   -1.3499 C   0  0  0  0  0  0  0  0  0  0  0  0
    1.7272    0.6171   -0.4468 N   0  0  0  0  0  0  0  0  0  0  0  0
    2.3334    0.1231    0.7946 C   0  0  0  0  0  0  0  0  0  0  0  0
    3.0952    1.2467    1.5111 C   0  0  0  0  0  0  0  0  0  0  0  0
    0.5014    0.0277   -0.9240 C   0  0  0  0  0  0  0  0  0  0  0  0
    0.0444    0.3460   -2.0568 O   0  0  0  0  0  0  0  0  0  0  0  0
   -0.1848   -0.8976   -0.1265 O   0  0  0  0  0  0  0  0  0  0  0  0
   -1.4543   -1.4553   -0.4645 C   0  0  2  0  0  0  0  0  0  0  0  0
   -2.5197   -0.8544    0.3634 N   0  0  0  0  0  0  0  0  0  0  0  0
   -3.0636   -1.8759    1.2088 C   0  0  0  0  0  0  0  0  0  0  0  0
   -3.9197   -1.6895    2.1133 O   0  0  0  0  0  0  0  0  0  0  0  0
   -2.4149   -3.1223    0.9181 C   0  0  0  0  0  0  0  0  0  0  0  0
   -2.6005   -4.3475    1.4655 N   0  0  0  0  0  0  0  0  0  0  0  0
   -1.8321   -5.3832    1.0165 C   0  0  0  0  0  0  0  0  0  0  0  0
   -0.8675   -5.1603    0.0084 C   0  0  0  0  0  0  0  0  0  0  0  0
   -0.7039   -3.9086   -0.5144 N   0  0  0  0  0  0  0  0  0  0  0  0
   -1.4833   -2.8974   -0.0560 C   0  0  0  0  0  0  0  0  0  0  0  0
   -2.9594    0.5134    0.2691 C   0  0  0  0  0  0  0  0  0  0  0  0
   -2.0877    1.4704   -0.1541 N   0  0  0  0  0  0  0  0  0  0  0  0
   -2.4435    2.7768   -0.2724 C   0  0  0  0  0  0  0  0  0  0  0  0
   -3.7445    3.1765    0.0388 C   0  0  0  0  0  0  0  0  0  0  0  0
   -4.2163    4.8590   -0.1115 Cl  0  0  0  0  0  0  0  0  0  0  0  0
   -4.6675    2.2184    0.4618 C   0  0  0  0  0  0  0  0  0  0  0  0
   -4.2811    0.8811    0.5755 C   0  0  0  0  0  0  0  0  0  0  0  0
    4.9447    0.2792   -0.3199 H   0  0  0  0  0  0  0  0  0  0  0  0
    5.9033    1.8087   -0.3436 H   0  0  0  0  0  0  0  0  0  0  0  0
    5.7470    0.8846    1.1794 H   0  0  0  0  0  0  0  0  0  0  0  0
    2.5817    3.2827   -0.2354 H   0  0  0  0  0  0  0  0  0  0  0  0
    4.0277    3.0234   -1.2454 H   0  0  0  0  0  0  0  0  0  0  0  0
    1.9274    1.9341   -2.1136 H   0  0  0  0  0  0  0  0  0  0  0  0
    3.2700    0.7667   -1.8857 H   0  0  0  0  0  0  0  0  0  0  0  0
    3.0165   -0.7210    0.5622 H   0  0  0  0  0  0  0  0  0  0  0  0
    1.5552   -0.2546    1.4922 H   0  0  0  0  0  0  0  0  0  0  0  0
    3.6547    0.8238    2.3742 H   0  0  0  0  0  0  0  0  0  0  0  0
    2.3586    1.9654    1.9330 H   0  0  0  0  0  0  0  0  0  0  0  0
   -1.6930   -1.3651   -1.5465 H   0  0  0  0  0  0  0  0  0  0  0  0
   -1.9620   -6.3720    1.4355 H   0  0  0  0  0  0  0  0  0  0  0  0
   -0.2551   -5.9775   -0.3480 H   0  0  0  0  0  0  0  0  0  0  0  0
   -1.7140    3.5014   -0.6092 H   0  0  0  0  0  0  0  0  0  0  0  0
   -5.6848    2.5066    0.6945 H   0  0  0  0  0  0  0  0  0  0  0  0
   -5.0169    0.1469    0.8707 H   0  0  0  0  0  0  0  0  0  0  0  0
  1  2  1  0
  2  3  1  0
  3  4  1  0
  4  5  1  0
  5  6  1  0
  6  7  1  0
  5  8  1  0
  8  9  2  0
  8 10  1  0
 10 11  1  0
 11 12  1  0
 12 13  1  0
 13 14  2  0
 13 15  1  0
 15 16  2  0
 16 17  1  0
 17 18  2  0
 18 19  1  0
 19 20  2  0
 12 21  1  0
 21 22  2  0
 22 23  1  0
 23 24  2  0
 24 25  1  0
 24 26  1  0
 26 27  2  0
  7  2  1  0
 20 11  1  0
 27 21  1  0
 20 15  1  0
  1 28  1  0
  1 29  1  0
  1 30  1  0
  3 31  1  0
  3 32  1  0
  4 33  1  0
  4 34  1  0
  6 35  1  0
  6 36  1  0
  7 37  1  0
  7 38  1  0
 11 39  1  6
 17 40  1  0
 18 41  1  0
 23 42  1  0
 26 43  1  0
 27 44  1  0
M  END
$$$$
