
     RDKit          3D

 21 21  0  0  0  0  0  0  0  0999 V2000
   -3.4252    0.2706    0.8812 N   0  0  0  0  0  0  0  0  0  0  0  0
   -2.5818    0.1113   -0.2667 C   0  0  0  0  0  0  0  0  0  0  0  0
   -3.1156    0.0471   -1.4465 N   0  0  0  0  0  0  0  0  0  0  0  0
   -1.1081    0.0025   -0.1218 C   0  0  0  0  0  0  0  0  0  0  0  0
   -0.4459    0.5759    0.9794 C   0  0  0  0  0  0  0  0  0  0  0  0
    0.9426    0.4725    1.1060 C   0  0  0  0  0  0  0  0  0  0  0  0
    1.6941   -0.2107    0.1395 C   0  0  0  0  0  0  0  0  0  0  0  0
    3.1910   -0.2891    0.2597 C   0  0  0  0  0  0  0  0  0  0  0  0
    3.7780    0.8633   -0.2793 O   0  0  0  0  0  0  0  0  0  0  0  0
    1.0433   -0.7621   -0.9730 C   0  0  0  0  0  0  0  0  0  0  0  0
   -0.3447   -0.6588   -1.1021 C   0  0  0  0  0  0  0  0  0  0  0  0
   -3.0518    0.1707    1.8503 H   0  0  0  0  0  0  0  0  0  0  0  0
   -4.4538    0.4112    0.7684 H   0  0  0  0  0  0  0  0  0  0  0  0
   -4.1482    0.1135   -1.5888 H   0  0  0  0  0  0  0  0  0  0  0  0
   -0.9916    1.1292    1.7318 H   0  0  0  0  0  0  0  0  0  0  0  0
    1.4331    0.9310    1.9559 H   0  0  0  0  0  0  0  0  0  0  0  0
    3.5823   -1.1995   -0.2495 H   0  0  0  0  0  0  0  0  0  0  0  0
    3.4786   -0.3693    1.3297 H   0  0  0  0  0  0  0  0  0  0  0  0
    3.7349    0.7682   -1.2668 H   0  0  0  0  0  0  0  0  0  0  0  0
    1.6104   -1.2730   -1.7414 H   0  0  0  0  0  0  0  0  0  0  0  0
   -0.8218   -1.1046   -1.9661 H   0  0  0  0  0  0  0  0  0  0  0  0
  1  2  1  0
  2  3  2  3
  2  4  1  0
  4  5  2  0
  5  6  1  0
  6  7  2  0
  7  8  1  0
  8  9  1  0
  7 10  1  0
 10 11  2  0
 11  4  1  0
  1 12  1  0
  1 13  1  0
  3 14  1  0
  5 15  1  0
  6 16  1  0
  8 17  1  0
  8 18  1  0
  9 19  1  0
 10 20  1  0
 11 21  1  0
M  END
$$$$
