
     RDKit          3D

 78 81  0  0  0  0  0  0  0  0999 V2000
   -3.1540   -0.0693    0.4825 C   0  0  0  0  0  0  0  0  0  0  0  0
   -1.6589   -0.0659    0.3626 C   0  0  0  0  0  0  0  0  0  0  0  0
   -1.0435   -0.4927   -0.8242 C   0  0  0  0  0  0  0  0  0  0  0  0
    0.3509   -0.5242   -0.9233 C   0  0  0  0  0  0  0  0  0  0  0  0
    1.1444   -0.1466    0.1683 C   0  0  0  0  0  0  0  0  0  0  0  0
    0.5319    0.2701    1.3577 C   0  0  0  0  0  0  0  0  0  0  0  0
   -0.8624    0.3020    1.4579 C   0  0  0  0  0  0  0  0  0  0  0  0
    2.9004   -0.1731    0.0391 S   0  0  0  0  0  6  0  0  0  0  0  0
    3.4477    1.3109   -0.5297 O   0  0  0  0  0  0  0  0  0  0  0  0
    3.3204   -1.2557   -0.9149 O   0  0  0  0  0  0  0  0  0  0  0  0
    3.5118   -0.4555    1.3831 O   0  0  0  0  0  0  0  0  0  0  0  0
   -4.3682    1.6402   -0.4839 C   0  0  0  0  0  0  0  0  0  0  0  0
   -4.4920    0.6836   -1.6879 C   0  0  0  0  0  0  0  0  0  0  0  0
   -3.6959   -0.4958   -1.2765 C   0  0  0  0  0  0  0  0  0  0  0  0
   -3.2831   -0.4265    0.0361 C   0  0  0  0  0  0  0  0  0  0  0  0
   -3.7816    0.8173    0.6845 C   0  0  0  0  0  0  0  0  0  0  0  0
   -2.5399   -1.4759    0.6159 C   0  0  0  0  0  0  0  0  0  0  0  0
   -2.2510   -2.6006   -0.1813 C   0  0  0  0  0  0  0  0  0  0  0  0
   -2.6744   -2.6599   -1.5180 C   0  0  0  0  0  0  0  0  0  0  0  0
   -3.4026   -1.6024   -2.0736 C   0  0  0  0  0  0  0  0  0  0  0  0
   -1.9688   -1.4359    2.2946 S   0  0  0  0  0  6  0  0  0  0  0  0
   -2.8463   -0.5403    3.1210 O   0  0  0  0  0  0  0  0  0  0  0  0
   -2.0956   -2.8202    2.8692 O   0  0  0  0  0  0  0  0  0  0  0  0
   -0.2898   -0.9149    2.4010 N   0  0  0  0  0  0  0  0  0  0  0  0
   -0.1033    0.4633    1.8649 C   0  0  1  0  0  0  0  0  0  0  0  0
   -0.4811    1.5030    2.9319 C   0  0  0  0  0  0  0  0  0  0  0  0
    1.3489    0.7449    1.4189 C   0  0  0  0  0  0  0  0  0  0  0  0
    1.8352   -0.2781    0.4886 N   0  0  0  0  0  0  0  0  0  0  0  0
    1.1695   -1.5813    0.4500 C   0  0  0  0  0  0  0  0  0  0  0  0
    0.6155   -1.9536    1.8372 C   0  0  1  0  0  0  0  0  0  0  0  0
    1.7414   -2.2501    2.8350 C   0  0  0  0  0  0  0  0  0  0  0  0
    2.9171    0.0206   -0.4215 C   0  0  0  0  0  0  0  0  0  0  0  0
    3.9750    0.8579   -0.0250 C   0  0  0  0  0  0  0  0  0  0  0  0
    5.0212    1.1494   -0.9052 C   0  0  0  0  0  0  0  0  0  0  0  0
    5.0285    0.6088   -2.2047 C   0  0  0  0  0  0  0  0  0  0  0  0
    6.0526    0.8680   -3.1300 O   0  0  0  0  0  0  0  0  0  0  0  0
    7.1927    1.6897   -2.8884 C   0  0  0  0  0  0  0  0  0  0  0  0
    7.9786    1.7108   -4.0243 F   0  0  0  0  0  0  0  0  0  0  0  0
    6.7957    2.9824   -2.5969 F   0  0  0  0  0  0  0  0  0  0  0  0
    7.9368    1.1769   -1.8410 F   0  0  0  0  0  0  0  0  0  0  0  0
    3.9754   -0.2221   -2.6007 C   0  0  0  0  0  0  0  0  0  0  0  0
    2.9293   -0.5151   -1.7218 C   0  0  0  0  0  0  0  0  0  0  0  0
   -5.6781    2.2881   -0.1281 C   0  0  0  0  0  0  0  0  0  0  0  0
   -5.7936    3.6742   -0.1616 O   0  0  0  0  0  0  0  0  0  0  0  0
   -6.6710    1.5840    0.2017 O   0  0  0  0  0  0  0  0  0  0  0  0
   -3.4923    0.7180    1.1894 H   0  0  0  0  0  0  0  0  0  0  0  0
   -3.6266    0.1286   -0.5032 H   0  0  0  0  0  0  0  0  0  0  0  0
   -3.4921   -1.0591    0.8540 H   0  0  0  0  0  0  0  0  0  0  0  0
   -1.6425   -0.7985   -1.6731 H   0  0  0  0  0  0  0  0  0  0  0  0
    0.8098   -0.8440   -1.8502 H   0  0  0  0  0  0  0  0  0  0  0  0
    1.1320    0.5691    2.2076 H   0  0  0  0  0  0  0  0  0  0  0  0
   -1.3202    0.6157    2.3879 H   0  0  0  0  0  0  0  0  0  0  0  0
    3.1432    1.9701    0.1441 H   0  0  0  0  0  0  0  0  0  0  0  0
   -3.6367    2.4372   -0.7487 H   0  0  0  0  0  0  0  0  0  0  0  0
   -4.0670    1.1413   -2.6074 H   0  0  0  0  0  0  0  0  0  0  0  0
   -5.5418    0.3677   -1.8738 H   0  0  0  0  0  0  0  0  0  0  0  0
   -2.9603    1.3768    1.1749 H   0  0  0  0  0  0  0  0  0  0  0  0
   -4.5580    0.5494    1.4336 H   0  0  0  0  0  0  0  0  0  0  0  0
   -1.6973   -3.4349    0.2277 H   0  0  0  0  0  0  0  0  0  0  0  0
   -2.4420   -3.5291   -2.1196 H   0  0  0  0  0  0  0  0  0  0  0  0
   -3.7397   -1.6485   -3.1011 H   0  0  0  0  0  0  0  0  0  0  0  0
   -0.7440    0.6173    0.9707 H   0  0  0  0  0  0  0  0  0  0  0  0
   -1.5635    1.4900    3.1524 H   0  0  0  0  0  0  0  0  0  0  0  0
    0.0770    1.3087    3.8728 H   0  0  0  0  0  0  0  0  0  0  0  0
   -0.2394    2.5284    2.5783 H   0  0  0  0  0  0  0  0  0  0  0  0
    1.3735    1.7368    0.9143 H   0  0  0  0  0  0  0  0  0  0  0  0
    2.0242    0.7955    2.2994 H   0  0  0  0  0  0  0  0  0  0  0  0
    1.8824   -2.3699    0.1214 H   0  0  0  0  0  0  0  0  0  0  0  0
    0.3414   -1.5409   -0.2880 H   0  0  0  0  0  0  0  0  0  0  0  0
    0.0881   -2.9225    1.7090 H   0  0  0  0  0  0  0  0  0  0  0  0
    1.3052   -2.5640    3.8071 H   0  0  0  0  0  0  0  0  0  0  0  0
    2.3805   -3.0773    2.4586 H   0  0  0  0  0  0  0  0  0  0  0  0
    2.3805   -1.3621    3.0091 H   0  0  0  0  0  0  0  0  0  0  0  0
    4.0013    1.2775    0.9719 H   0  0  0  0  0  0  0  0  0  0  0  0
    5.8178    1.7938   -0.5616 H   0  0  0  0  0  0  0  0  0  0  0  0
    3.9660   -0.6415   -3.5989 H   0  0  0  0  0  0  0  0  0  0  0  0
    2.1219   -1.1485   -2.0654 H   0  0  0  0  0  0  0  0  0  0  0  0
   -6.6674    4.1286    0.0754 H   0  0  0  0  0  0  0  0  0  0  0  0
  1  2  1  0
  2  3  2  0
  3  4  1  0
  4  5  2  0
  5  6  1  0
  6  7  2  0
  5  8  1  0
  8  9  1  0
  8 10  2  0
  8 11  2  0
 12 13  1  0
 13 14  1  0
 14 15  2  0
 15 16  1  0
 15 17  1  0
 17 18  2  0
 18 19  1  0
 19 20  2  0
 17 21  1  0
 21 22  2  0
 21 23  2  0
 21 24  1  0
 24 25  1  0
 25 26  1  0
 25 27  1  0
 27 28  1  0
 28 29  1  0
 29 30  1  0
 30 31  1  0
 28 32  1  0
 32 33  2  0
 33 34  1  0
 34 35  2  0
 35 36  1  0
 36 37  1  0
 37 38  1  0
 37 39  1  0
 37 40  1  0
 35 41  1  0
 41 42  2  0
 12 43  1  0
 43 44  1  0
 43 45  2  0
  7  2  1  0
 16 12  1  0
 30 24  1  0
 42 32  1  0
 20 14  1  0
  1 46  1  0
  1 47  1  0
  1 48  1  0
  3 49  1  0
  4 50  1  0
  6 51  1  0
  7 52  1  0
  9 53  1  0
 12 54  1  0
 13 55  1  0
 13 56  1  0
 16 57  1  0
 16 58  1  0
 18 59  1  0
 19 60  1  0
 20 61  1  0
 25 62  1  6
 26 63  1  0
 26 64  1  0
 26 65  1  0
 27 66  1  0
 27 67  1  0
 29 68  1  0
 29 69  1  0
 30 70  1  6
 31 71  1  0
 31 72  1  0
 31 73  1  0
 33 74  1  0
 34 75  1  0
 41 76  1  0
 42 77  1  0
 44 78  1  0
M  END
$$$$
