
     RDKit          3D

 35 36  0  0  0  0  0  0  0  0999 V2000
    2.9411   -1.6421    1.0549 N   0  0  0  0  0  0  0  0  0  0  0  0
    3.6233   -1.1220   -0.1330 C   0  0  1  0  0  0  0  0  0  0  0  0
    3.4913    0.4091   -0.2059 C   0  0  0  0  0  0  0  0  0  0  0  0
    2.0498    0.8285   -0.3412 C   0  0  0  0  0  0  0  0  0  0  0  0
    1.3000    1.1690    0.7949 C   0  0  0  0  0  0  0  0  0  0  0  0
   -0.0480    1.5225    0.6757 C   0  0  0  0  0  0  0  0  0  0  0  0
   -1.1001    2.0911    2.4227 I   0  0  0  0  0  0  0  0  0  0  0  0
   -0.6642    1.5218   -0.5893 C   0  0  0  0  0  0  0  0  0  0  0  0
   -2.0143    1.8592   -0.7298 O   0  0  0  0  0  0  0  0  0  0  0  0
   -3.0756    1.0440   -0.3081 C   0  0  0  0  0  0  0  0  0  0  0  0
   -4.3698    1.5702   -0.3286 C   0  0  0  0  0  0  0  0  0  0  0  0
   -5.4588    0.7963    0.0830 C   0  0  0  0  0  0  0  0  0  0  0  0
   -7.3936    1.6488    0.0390 I   0  0  0  0  0  0  0  0  0  0  0  0
   -5.2643   -0.5233    0.5180 C   0  0  0  0  0  0  0  0  0  0  0  0
   -6.3710   -1.2701    0.9250 O   0  0  0  0  0  0  0  0  0  0  0  0
   -3.9624   -1.0639    0.5335 C   0  0  0  0  0  0  0  0  0  0  0  0
   -3.5566   -3.0452    1.1664 I   0  0  0  0  0  0  0  0  0  0  0  0
   -2.8789   -0.2817    0.1185 C   0  0  0  0  0  0  0  0  0  0  0  0
    0.0861    1.1907   -1.7270 C   0  0  0  0  0  0  0  0  0  0  0  0
   -0.8055    1.1795   -3.6438 I   0  0  0  0  0  0  0  0  0  0  0  0
    1.4330    0.8375   -1.6011 C   0  0  0  0  0  0  0  0  0  0  0  0
    5.0751   -1.5212   -0.1268 C   0  0  0  0  0  0  0  0  0  0  0  0
    5.9122   -1.0995    0.9026 O   0  0  0  0  0  0  0  0  0  0  0  0
    5.5356   -2.2388   -1.0548 O   0  0  0  0  0  0  0  0  0  0  0  0
    3.4237   -1.2956    1.9165 H   0  0  0  0  0  0  0  0  0  0  0  0
    3.0132   -2.6859    1.0528 H   0  0  0  0  0  0  0  0  0  0  0  0
    3.1386   -1.5580   -1.0361 H   0  0  0  0  0  0  0  0  0  0  0  0
    3.9406    0.8742    0.6997 H   0  0  0  0  0  0  0  0  0  0  0  0
    4.0640    0.7892   -1.0810 H   0  0  0  0  0  0  0  0  0  0  0  0
    1.7641    1.1622    1.7733 H   0  0  0  0  0  0  0  0  0  0  0  0
   -4.5283    2.5879   -0.6619 H   0  0  0  0  0  0  0  0  0  0  0  0
   -6.3024   -2.2253    1.2497 H   0  0  0  0  0  0  0  0  0  0  0  0
   -1.8867   -0.7130    0.1275 H   0  0  0  0  0  0  0  0  0  0  0  0
    1.9981    0.5653   -2.4839 H   0  0  0  0  0  0  0  0  0  0  0  0
    6.8905   -1.3616    0.9172 H   0  0  0  0  0  0  0  0  0  0  0  0
  1  2  1  0
  2  3  1  0
  3  4  1  0
  4  5  2  0
  5  6  1  0
  6  7  1  0
  6  8  2  0
  8  9  1  0
  9 10  1  0
 10 11  2  0
 11 12  1  0
 12 13  1  0
 12 14  2  0
 14 15  1  0
 14 16  1  0
 16 17  1  0
 16 18  2  0
  8 19  1  0
 19 20  1  0
 19 21  2  0
  2 22  1  0
 22 23  1  0
 22 24  2  0
 21  4  1  0
 18 10  1  0
  1 25  1  0
  1 26  1  0
  2 27  1  6
  3 28  1  0
  3 29  1  0
  5 30  1  0
 11 31  1  0
 15 32  1  0
 18 33  1  0
 21 34  1  0
 23 35  1  0
M  END
$$$$
