
     RDKit          3D

 83 89  0  0  0  0  0  0  0  0999 V2000
   -4.1541   -2.0229   -0.1212 C   0  0  2  0  0  0  0  0  0  0  0  0
   -4.4922   -3.1296   -1.1258 C   0  0  0  0  0  0  0  0  0  0  0  0
   -5.8800   -2.7973   -1.6810 C   0  0  0  0  0  0  0  0  0  0  0  0
   -6.4737   -1.7301   -0.7671 C   0  0  0  0  0  0  0  0  0  0  0  0
   -5.3658   -1.2379    0.0273 N   0  0  0  0  0  0  0  0  0  0  0  0
   -5.3700    0.0401    0.6821 C   0  0  0  0  0  0  0  0  0  0  0  0
   -6.4469    0.4965    1.1505 O   0  0  0  0  0  0  0  0  0  0  0  0
   -4.0825    0.8304    0.8169 C   0  0  2  0  0  0  0  0  0  0  0  0
   -4.0964    2.1209   -0.0334 C   0  0  0  0  0  0  0  0  0  0  0  0
   -5.0786    3.2231    0.4351 C   0  0  0  0  0  0  0  0  0  0  0  0
   -5.0468    4.3957   -0.5546 C   0  0  0  0  0  0  0  0  0  0  0  0
   -4.7538    3.7297    1.8489 C   0  0  0  0  0  0  0  0  0  0  0  0
   -2.9461    0.0039    0.3879 N   0  0  0  0  0  0  0  0  0  0  0  0
   -1.6702   -0.0203    0.9507 C   0  0  0  0  0  0  0  0  0  0  0  0
   -1.2477    0.8545    1.7537 O   0  0  0  0  0  0  0  0  0  0  0  0
   -0.8930   -1.1686    0.4214 C   0  0  2  0  0  0  0  0  0  0  0  0
    0.3072   -0.6683   -0.2674 N   0  0  0  0  0  0  0  0  0  0  0  0
    0.9468   -1.3312   -1.3739 C   0  0  0  0  0  0  0  0  0  0  0  0
    0.3453   -2.2324   -2.0184 O   0  0  0  0  0  0  0  0  0  0  0  0
    2.3450   -0.9493   -1.7783 C   0  0  1  0  0  0  0  0  0  0  0  0
    2.3538    0.4489   -2.4347 C   0  0  0  0  0  0  0  0  0  0  0  0
    3.7146    1.0165   -2.5003 N   0  0  0  0  0  0  0  0  0  0  0  0
    4.5913    0.2243   -3.3887 C   0  0  0  0  0  0  0  0  0  0  0  0
    4.2497    1.1962   -1.1263 C   0  0  2  0  0  0  0  0  0  0  0  0
    5.6666    1.8636   -1.1232 C   0  0  0  0  0  0  0  0  0  0  0  0
    6.2578    1.8103    0.2512 C   0  0  0  0  0  0  0  0  0  0  0  0
    7.3402    2.4756    0.8196 C   0  0  0  0  0  0  0  0  0  0  0  0
    8.3255    3.8967    0.0126 Br  0  0  0  0  0  0  0  0  0  0  0  0
    7.6497    1.9276    2.0245 N   0  0  0  0  0  0  0  0  0  0  0  0
    6.7847    0.9079    2.1932 C   0  0  0  0  0  0  0  0  0  0  0  0
    6.7151   -0.0167    3.2331 C   0  0  0  0  0  0  0  0  0  0  0  0
    5.7423   -1.0362    3.1351 C   0  0  0  0  0  0  0  0  0  0  0  0
    4.8827   -1.1147    2.0081 C   0  0  0  0  0  0  0  0  0  0  0  0
    4.9933   -0.1641    0.9617 C   0  0  0  0  0  0  0  0  0  0  0  0
    5.9472    0.8212    1.1270 C   0  0  0  0  0  0  0  0  0  0  0  0
    4.1652   -0.0925   -0.2817 C   0  0  0  0  0  0  0  0  0  0  0  0
    3.2607   -1.0398   -0.5829 C   0  0  0  0  0  0  0  0  0  0  0  0
   -1.7668   -1.8056   -0.5100 O   0  0  0  0  0  0  0  0  0  0  0  0
   -3.0062   -1.1006   -0.5521 C   0  0  1  0  0  0  0  0  0  0  0  0
   -3.2337   -0.6110   -1.8496 O   0  0  0  0  0  0  0  0  0  0  0  0
   -0.5219   -2.1754    1.5577 C   0  0  0  0  0  0  0  0  0  0  0  0
    0.5282   -1.6247    2.5409 C   0  0  0  0  0  0  0  0  0  0  0  0
   -0.0343   -3.5237    1.0007 C   0  0  0  0  0  0  0  0  0  0  0  0
   -3.9001   -2.4782    0.8628 H   0  0  0  0  0  0  0  0  0  0  0  0
   -3.7441   -3.2082   -1.9449 H   0  0  0  0  0  0  0  0  0  0  0  0
   -4.5317   -4.1081   -0.5984 H   0  0  0  0  0  0  0  0  0  0  0  0
   -5.7778   -2.3905   -2.7111 H   0  0  0  0  0  0  0  0  0  0  0  0
   -6.5269   -3.7009   -1.7130 H   0  0  0  0  0  0  0  0  0  0  0  0
   -7.2464   -2.1654   -0.0977 H   0  0  0  0  0  0  0  0  0  0  0  0
   -6.9159   -0.9071   -1.3703 H   0  0  0  0  0  0  0  0  0  0  0  0
   -3.9451    1.0758    1.8902 H   0  0  0  0  0  0  0  0  0  0  0  0
   -4.3375    1.8437   -1.0838 H   0  0  0  0  0  0  0  0  0  0  0  0
   -3.0684    2.5475   -0.0419 H   0  0  0  0  0  0  0  0  0  0  0  0
   -6.1151    2.8278    0.4313 H   0  0  0  0  0  0  0  0  0  0  0  0
   -5.3145    4.0458   -1.5746 H   0  0  0  0  0  0  0  0  0  0  0  0
   -5.7837    5.1722   -0.2567 H   0  0  0  0  0  0  0  0  0  0  0  0
   -4.0353    4.8551   -0.5868 H   0  0  0  0  0  0  0  0  0  0  0  0
   -3.6845    4.0219    1.9263 H   0  0  0  0  0  0  0  0  0  0  0  0
   -5.3824    4.6114    2.0974 H   0  0  0  0  0  0  0  0  0  0  0  0
   -4.9769    2.9502    2.6056 H   0  0  0  0  0  0  0  0  0  0  0  0
    0.8211    0.1291    0.1732 H   0  0  0  0  0  0  0  0  0  0  0  0
    2.7115   -1.6876   -2.5253 H   0  0  0  0  0  0  0  0  0  0  0  0
    1.7004    1.1491   -1.8676 H   0  0  0  0  0  0  0  0  0  0  0  0
    1.9156    0.3858   -3.4554 H   0  0  0  0  0  0  0  0  0  0  0  0
    4.0361   -0.1420   -4.2795 H   0  0  0  0  0  0  0  0  0  0  0  0
    5.4055    0.8678   -3.7803 H   0  0  0  0  0  0  0  0  0  0  0  0
    5.0331   -0.6490   -2.8616 H   0  0  0  0  0  0  0  0  0  0  0  0
    3.5889    1.9287   -0.6086 H   0  0  0  0  0  0  0  0  0  0  0  0
    5.5899    2.9185   -1.4630 H   0  0  0  0  0  0  0  0  0  0  0  0
    6.3684    1.3239   -1.7893 H   0  0  0  0  0  0  0  0  0  0  0  0
    8.4265    2.2091    2.6630 H   0  0  0  0  0  0  0  0  0  0  0  0
    7.3851    0.0395    4.0811 H   0  0  0  0  0  0  0  0  0  0  0  0
    5.6542   -1.7681    3.9273 H   0  0  0  0  0  0  0  0  0  0  0  0
    4.1466   -1.9043    1.9790 H   0  0  0  0  0  0  0  0  0  0  0  0
    3.2022   -1.9469    0.0016 H   0  0  0  0  0  0  0  0  0  0  0  0
   -2.4485   -0.0518   -2.0876 H   0  0  0  0  0  0  0  0  0  0  0  0
   -1.4460   -2.3879    2.1415 H   0  0  0  0  0  0  0  0  0  0  0  0
    1.4798   -1.3892    2.0197 H   0  0  0  0  0  0  0  0  0  0  0  0
    0.1593   -0.7149    3.0535 H   0  0  0  0  0  0  0  0  0  0  0  0
    0.7426   -2.3776    3.3293 H   0  0  0  0  0  0  0  0  0  0  0  0
    0.9295   -3.4072    0.4630 H   0  0  0  0  0  0  0  0  0  0  0  0
    0.1177   -4.2450    1.8319 H   0  0  0  0  0  0  0  0  0  0  0  0
   -0.7858   -3.9642    0.3125 H   0  0  0  0  0  0  0  0  0  0  0  0
  1  2  1  0
  2  3  1  0
  3  4  1  0
  4  5  1  0
  5  6  1  0
  6  7  2  0
  6  8  1  0
  8  9  1  0
  9 10  1  0
 10 11  1  0
 10 12  1  0
  8 13  1  0
 13 14  1  0
 14 15  2  0
 14 16  1  0
 16 17  1  6
 17 18  1  0
 18 19  2  0
 18 20  1  0
 20 21  1  0
 21 22  1  0
 22 23  1  0
 22 24  1  0
 24 25  1  0
 25 26  1  0
 26 27  2  0
 27 28  1  0
 27 29  1  0
 29 30  1  0
 30 31  2  0
 31 32  1  0
 32 33  2  0
 33 34  1  0
 34 35  2  0
 34 36  1  0
 36 37  2  0
 16 38  1  0
 38 39  1  0
 39 40  1  6
 16 41  1  0
 41 42  1  0
 41 43  1  0
  5  1  1  0
 39 13  1  0
 39  1  1  0
 37 20  1  0
 36 24  1  0
 35 26  1  0
 35 30  1  0
  1 44  1  1
  2 45  1  0
  2 46  1  0
  3 47  1  0
  3 48  1  0
  4 49  1  0
  4 50  1  0
  8 51  1  1
  9 52  1  0
  9 53  1  0
 10 54  1  0
 11 55  1  0
 11 56  1  0
 11 57  1  0
 12 58  1  0
 12 59  1  0
 12 60  1  0
 17 61  1  0
 20 62  1  6
 21 63  1  0
 21 64  1  0
 23 65  1  0
 23 66  1  0
 23 67  1  0
 24 68  1  1
 25 69  1  0
 25 70  1  0
 29 71  1  0
 31 72  1  0
 32 73  1  0
 33 74  1  0
 37 75  1  0
 40 76  1  0
 41 77  1  0
 42 78  1  0
 42 79  1  0
 42 80  1  0
 43 81  1  0
 43 82  1  0
 43 83  1  0
M  END
$$$$
