
     RDKit          3D

 50 49  0  0  0  0  0  0  0  0999 V2000
   -2.1262    1.3043    0.2748 C   0  0  2  0  0  0  0  0  0  0  0  0
   -2.2510    1.2492    1.8047 C   0  0  0  0  0  0  0  0  0  0  0  0
   -1.0381    1.8391    2.4573 C   0  0  0  0  0  0  0  0  0  0  0  0
   -1.0132    3.1927    2.7778 O   0  0  0  0  0  0  0  0  0  0  0  0
   -0.0262    1.1209    2.6777 O   0  0  0  0  0  0  0  0  0  0  0  0
   -3.4768    1.1809   -0.5002 C   0  0  0  0  0  0  0  0  0  0  0  0
   -4.2987   -0.0697   -0.3494 N   0  0  0  0  0  4  0  0  0  0  0  0
   -5.2700   -0.1043   -1.4737 C   0  0  0  0  0  0  0  0  0  0  0  0
   -3.4840   -1.3049   -0.4188 C   0  0  0  0  0  0  0  0  0  0  0  0
   -5.0849   -0.0605    0.9103 C   0  0  0  0  0  0  0  0  0  0  0  0
   -1.1649    0.3425   -0.1641 O   0  0  0  0  0  0  0  0  0  0  0  0
   -0.4729    0.4285   -1.3774 C   0  0  0  0  0  0  0  0  0  0  0  0
   -0.6214    1.4224   -2.1394 O   0  0  0  0  0  0  0  0  0  0  0  0
    0.4935   -0.6517   -1.7429 C   0  0  0  0  0  0  0  0  0  0  0  0
    1.8049   -0.4753   -0.9721 C   0  0  0  0  0  0  0  0  0  0  0  0
    2.8101   -1.5773   -1.3377 C   0  0  0  0  0  0  0  0  0  0  0  0
    4.0862   -1.5198   -0.4832 C   0  0  0  0  0  0  0  0  0  0  0  0
    4.9567   -0.2916   -0.8020 C   0  0  0  0  0  0  0  0  0  0  0  0
    6.3418   -0.3649   -0.1411 C   0  0  0  0  0  0  0  0  0  0  0  0
    6.2783   -0.2207    1.3792 C   0  0  0  0  0  0  0  0  0  0  0  0
   -1.7355    2.3196    0.0294 H   0  0  0  0  0  0  0  0  0  0  0  0
   -2.3425    0.1984    2.1470 H   0  0  0  0  0  0  0  0  0  0  0  0
   -3.1444    1.8207    2.1367 H   0  0  0  0  0  0  0  0  0  0  0  0
   -0.1944    3.6106    3.2032 H   0  0  0  0  0  0  0  0  0  0  0  0
   -3.2163    1.3284   -1.5730 H   0  0  0  0  0  0  0  0  0  0  0  0
   -4.0951    2.0710   -0.2422 H   0  0  0  0  0  0  0  0  0  0  0  0
   -4.7486   -0.1605   -2.4562 H   0  0  0  0  0  0  0  0  0  0  0  0
   -5.9099    0.8073   -1.4770 H   0  0  0  0  0  0  0  0  0  0  0  0
   -5.9424   -0.9899   -1.4088 H   0  0  0  0  0  0  0  0  0  0  0  0
   -2.8579   -1.3173   -1.3383 H   0  0  0  0  0  0  0  0  0  0  0  0
   -4.1314   -2.2105   -0.4383 H   0  0  0  0  0  0  0  0  0  0  0  0
   -2.8255   -1.4109    0.4683 H   0  0  0  0  0  0  0  0  0  0  0  0
   -4.4554   -0.2325    1.8012 H   0  0  0  0  0  0  0  0  0  0  0  0
   -5.8406   -0.8784    0.9184 H   0  0  0  0  0  0  0  0  0  0  0  0
   -5.6292    0.9009    1.0416 H   0  0  0  0  0  0  0  0  0  0  0  0
    0.0391   -1.6355   -1.4957 H   0  0  0  0  0  0  0  0  0  0  0  0
    0.6904   -0.6240   -2.8372 H   0  0  0  0  0  0  0  0  0  0  0  0
    2.2342    0.5196   -1.2187 H   0  0  0  0  0  0  0  0  0  0  0  0
    1.5963   -0.5118    0.1203 H   0  0  0  0  0  0  0  0  0  0  0  0
    3.0745   -1.5061   -2.4157 H   0  0  0  0  0  0  0  0  0  0  0  0
    2.3328   -2.5684   -1.1734 H   0  0  0  0  0  0  0  0  0  0  0  0
    4.6738   -2.4421   -0.6843 H   0  0  0  0  0  0  0  0  0  0  0  0
    3.8078   -1.5236    0.5925 H   0  0  0  0  0  0  0  0  0  0  0  0
    4.4442    0.6381   -0.4745 H   0  0  0  0  0  0  0  0  0  0  0  0
    5.1055   -0.2280   -1.9021 H   0  0  0  0  0  0  0  0  0  0  0  0
    6.9670    0.4613   -0.5437 H   0  0  0  0  0  0  0  0  0  0  0  0
    6.8417   -1.3224   -0.4040 H   0  0  0  0  0  0  0  0  0  0  0  0
    5.7390    0.7090    1.6595 H   0  0  0  0  0  0  0  0  0  0  0  0
    5.7704   -1.0954    1.8357 H   0  0  0  0  0  0  0  0  0  0  0  0
    7.3094   -0.1677    1.7879 H   0  0  0  0  0  0  0  0  0  0  0  0
  1  2  1  0
  2  3  1  0
  3  4  1  0
  3  5  2  0
  1  6  1  0
  6  7  1  0
  7  8  1  0
  7  9  1  0
  7 10  1  0
  1 11  1  0
 11 12  1  0
 12 13  2  0
 12 14  1  0
 14 15  1  0
 15 16  1  0
 16 17  1  0
 17 18  1  0
 18 19  1  0
 19 20  1  0
  1 21  1  1
  2 22  1  0
  2 23  1  0
  4 24  1  0
  6 25  1  0
  6 26  1  0
  8 27  1  0
  8 28  1  0
  8 29  1  0
  9 30  1  0
  9 31  1  0
  9 32  1  0
 10 33  1  0
 10 34  1  0
 10 35  1  0
 14 36  1  0
 14 37  1  0
 15 38  1  0
 15 39  1  0
 16 40  1  0
 16 41  1  0
 17 42  1  0
 17 43  1  0
 18 44  1  0
 18 45  1  0
 19 46  1  0
 19 47  1  0
 20 48  1  0
 20 49  1  0
 20 50  1  0
M  CHG  1   7   1
M  END
$$$$
