
     RDKit          3D

 52 55  0  0  0  0  0  0  0  0999 V2000
    0.7199    0.5019   -1.1286 C   0  0  2  0  0  0  0  0  0  0  0  0
    1.5385    0.4628   -2.4135 C   0  0  0  0  0  0  0  0  0  0  0  0
    2.9827    0.7457   -1.9582 C   0  0  0  0  0  0  0  0  0  0  0  0
    2.9702    0.7778   -0.3953 C   0  0  2  0  0  0  0  0  0  0  0  0
    2.8227    2.1192    0.0212 O   0  0  0  0  0  0  0  0  0  0  0  0
    4.2364    0.1962    0.2438 C   0  0  0  0  0  0  0  0  0  0  0  0
    4.9989   -0.5002   -0.4108 O   0  0  0  0  0  0  0  0  0  0  0  0
    4.5574    0.4409    1.6955 C   0  0  0  0  0  0  0  0  0  0  0  0
    4.5314   -0.7660    2.4077 O   0  0  0  0  0  0  0  0  0  0  0  0
    1.6763   -0.0255   -0.0445 C   0  0  2  0  0  0  0  0  0  0  0  0
    1.9636   -1.5622   -0.1674 C   0  0  0  0  0  0  0  0  0  0  0  0
    1.0492    0.2825    1.3436 C   0  0  0  0  0  0  0  0  0  0  0  0
   -0.3988   -0.2707    1.4942 C   0  0  2  0  0  0  0  0  0  0  0  0
   -0.3812   -1.6606    1.6782 O   0  0  0  0  0  0  0  0  0  0  0  0
   -1.3201    0.1292    0.2914 C   0  0  1  0  0  0  0  0  0  0  0  0
   -0.6660   -0.1780   -1.0950 C   0  0  1  0  0  0  0  0  0  0  0  0
   -1.5395    0.3023   -2.2345 C   0  0  0  0  0  0  0  0  0  0  0  0
   -2.8587    0.5054   -2.1160 C   0  0  0  0  0  0  0  0  0  0  0  0
   -3.7450    0.9662   -3.5699 Cl  0  0  0  0  0  0  0  0  0  0  0  0
   -3.5459    0.3675   -0.7994 C   0  0  0  0  0  0  0  0  0  0  0  0
   -4.7851    0.8640   -0.6295 C   0  0  0  0  0  0  0  0  0  0  0  0
   -5.4206    0.8635    0.6893 C   0  0  0  0  0  0  0  0  0  0  0  0
   -6.6035    1.2734    0.8239 O   0  0  0  0  0  0  0  0  0  0  0  0
   -4.6561    0.4286    1.8557 C   0  0  0  0  0  0  0  0  0  0  0  0
   -3.4301   -0.0738    1.7078 C   0  0  0  0  0  0  0  0  0  0  0  0
   -2.8132   -0.3623    0.3396 C   0  0  2  0  0  0  0  0  0  0  0  0
   -2.9733   -1.8809    0.0904 C   0  0  0  0  0  0  0  0  0  0  0  0
    0.5300    1.5870   -0.9377 H   0  0  0  0  0  0  0  0  0  0  0  0
    1.1928    1.2366   -3.1333 H   0  0  0  0  0  0  0  0  0  0  0  0
    1.4658   -0.5387   -2.8916 H   0  0  0  0  0  0  0  0  0  0  0  0
    3.6403   -0.0530   -2.3626 H   0  0  0  0  0  0  0  0  0  0  0  0
    3.3375    1.7119   -2.3792 H   0  0  0  0  0  0  0  0  0  0  0  0
    3.6450    2.6123   -0.2398 H   0  0  0  0  0  0  0  0  0  0  0  0
    3.8184    1.1317    2.1507 H   0  0  0  0  0  0  0  0  0  0  0  0
    5.5566    0.9248    1.7803 H   0  0  0  0  0  0  0  0  0  0  0  0
    5.3875   -1.2305    2.2151 H   0  0  0  0  0  0  0  0  0  0  0  0
    1.0576   -2.1903   -0.1570 H   0  0  0  0  0  0  0  0  0  0  0  0
    2.5063   -1.8102   -1.1023 H   0  0  0  0  0  0  0  0  0  0  0  0
    2.5914   -1.9043    0.6820 H   0  0  0  0  0  0  0  0  0  0  0  0
    1.6886   -0.1306    2.1526 H   0  0  0  0  0  0  0  0  0  0  0  0
    1.0050    1.3814    1.5047 H   0  0  0  0  0  0  0  0  0  0  0  0
   -0.8087    0.2069    2.4130 H   0  0  0  0  0  0  0  0  0  0  0  0
   -0.0410   -1.8283    2.5958 H   0  0  0  0  0  0  0  0  0  0  0  0
   -1.3852    1.2418    0.3651 H   0  0  0  0  0  0  0  0  0  0  0  0
   -0.5487   -1.2674   -1.2374 H   0  0  0  0  0  0  0  0  0  0  0  0
   -1.0973    0.3771   -3.2201 H   0  0  0  0  0  0  0  0  0  0  0  0
   -5.3169    1.3399   -1.4426 H   0  0  0  0  0  0  0  0  0  0  0  0
   -5.0868    0.5180    2.8455 H   0  0  0  0  0  0  0  0  0  0  0  0
   -2.9359   -0.4376    2.5987 H   0  0  0  0  0  0  0  0  0  0  0  0
   -2.4960   -2.4856    0.8858 H   0  0  0  0  0  0  0  0  0  0  0  0
   -4.0524   -2.1497    0.0866 H   0  0  0  0  0  0  0  0  0  0  0  0
   -2.5641   -2.1907   -0.8922 H   0  0  0  0  0  0  0  0  0  0  0  0
  1  2  1  0
  2  3  1  0
  3  4  1  0
  4  5  1  6
  4  6  1  0
  6  7  2  0
  6  8  1  0
  8  9  1  0
  4 10  1  0
 10 11  1  6
 10 12  1  0
 12 13  1  0
 13 14  1  0
 13 15  1  0
 15 16  1  0
 16 17  1  0
 17 18  2  0
 18 19  1  0
 18 20  1  0
 20 21  2  0
 21 22  1  0
 22 23  2  0
 22 24  1  0
 24 25  2  0
 25 26  1  0
 26 27  1  6
 10  1  1  0
 26 15  1  0
 16  1  1  0
 26 20  1  0
  1 28  1  1
  2 29  1  0
  2 30  1  0
  3 31  1  0
  3 32  1  0
  5 33  1  0
  8 34  1  0
  8 35  1  0
  9 36  1  0
 11 37  1  0
 11 38  1  0
 11 39  1  0
 12 40  1  0
 12 41  1  0
 13 42  1  1
 14 43  1  0
 15 44  1  6
 16 45  1  6
 17 46  1  0
 21 47  1  0
 24 48  1  0
 25 49  1  0
 27 50  1  0
 27 51  1  0
 27 52  1  0
M  END
$$$$
