
     RDKit          3D

 65 65  0  0  0  0  0  0  0  0999 V2000
   -3.7679    0.6569    0.6138 C   0  0  2  0  0  0  0  0  0  0  0  0
   -4.9617   -0.0844    0.5573 O   0  0  0  0  0  0  0  0  0  0  0  0
   -3.7926    1.7330   -0.4849 C   0  0  0  0  0  0  0  0  0  0  0  0
   -4.9479    2.5325   -0.3416 O   0  0  0  0  0  0  0  0  0  0  0  0
   -4.9526    3.5280   -1.3406 C   0  0  0  0  0  0  0  0  0  0  0  0
   -2.5636   -0.3061    0.4507 C   0  0  2  0  0  0  0  0  0  0  0  0
   -2.4903   -1.3014    1.6376 C   0  0  0  0  0  0  0  0  0  0  0  0
   -1.6658   -2.5795    1.3410 C   0  0  0  0  0  0  0  0  0  0  0  0
   -0.1640   -2.2914    1.1975 C   0  0  0  0  0  0  0  0  0  0  0  0
   -1.8863   -3.6124    2.4554 C   0  0  0  0  0  0  0  0  0  0  0  0
   -1.3171    0.4661    0.3747 N   0  0  0  0  0  0  0  0  0  0  0  0
   -0.6020    0.6787   -0.8530 C   0  0  0  0  0  0  0  0  0  0  0  0
   -0.9493    0.0738   -1.9043 O   0  0  0  0  0  0  0  0  0  0  0  0
    0.6196    1.5609   -0.8675 C   0  0  2  0  0  0  0  0  0  0  0  0
    0.6901    2.4472   -2.1324 C   0  0  0  0  0  0  0  0  0  0  0  0
   -0.5262    3.3875   -2.3268 C   0  0  0  0  0  0  0  0  0  0  0  0
   -0.4227    4.1003   -3.6812 C   0  0  0  0  0  0  0  0  0  0  0  0
   -0.6430    4.4259   -1.2006 C   0  0  0  0  0  0  0  0  0  0  0  0
    1.8107    0.7126   -0.7867 N   0  0  0  0  0  0  0  0  0  0  0  0
    2.3057    0.2090    0.4595 C   0  0  0  0  0  0  0  0  0  0  0  0
    1.9029    0.6981    1.5509 O   0  0  0  0  0  0  0  0  0  0  0  0
    3.2260   -0.8420    0.4533 O   0  0  0  0  0  0  0  0  0  0  0  0
    3.7257   -1.4315    1.6485 C   0  0  0  0  0  0  0  0  0  0  0  0
    4.6091   -2.5910    1.2950 C   0  0  0  0  0  0  0  0  0  0  0  0
    5.9865   -2.3995    1.0974 C   0  0  0  0  0  0  0  0  0  0  0  0
    6.8008   -3.4757    0.7304 C   0  0  0  0  0  0  0  0  0  0  0  0
    6.2444   -4.7447    0.5466 C   0  0  0  0  0  0  0  0  0  0  0  0
    4.8717   -4.9387    0.7248 C   0  0  0  0  0  0  0  0  0  0  0  0
    4.0540   -3.8653    1.0918 C   0  0  0  0  0  0  0  0  0  0  0  0
   -3.6772    1.1672    1.6030 H   0  0  0  0  0  0  0  0  0  0  0  0
   -5.6372    0.4084    1.0928 H   0  0  0  0  0  0  0  0  0  0  0  0
   -2.8835    2.3655   -0.3809 H   0  0  0  0  0  0  0  0  0  0  0  0
   -3.7850    1.2304   -1.4799 H   0  0  0  0  0  0  0  0  0  0  0  0
   -4.0751    4.2051   -1.2395 H   0  0  0  0  0  0  0  0  0  0  0  0
   -4.9805    3.0787   -2.3583 H   0  0  0  0  0  0  0  0  0  0  0  0
   -5.8670    4.1445   -1.2210 H   0  0  0  0  0  0  0  0  0  0  0  0
   -2.7183   -0.8887   -0.4844 H   0  0  0  0  0  0  0  0  0  0  0  0
   -3.5230   -1.6249    1.8930 H   0  0  0  0  0  0  0  0  0  0  0  0
   -2.0896   -0.7891    2.5403 H   0  0  0  0  0  0  0  0  0  0  0  0
   -2.0283   -3.0319    0.3914 H   0  0  0  0  0  0  0  0  0  0  0  0
    0.0393   -1.7605    0.2477 H   0  0  0  0  0  0  0  0  0  0  0  0
    0.2048   -1.6832    2.0508 H   0  0  0  0  0  0  0  0  0  0  0  0
    0.4138   -3.2395    1.1620 H   0  0  0  0  0  0  0  0  0  0  0  0
   -2.9640   -3.8696    2.5363 H   0  0  0  0  0  0  0  0  0  0  0  0
   -1.3313   -4.5483    2.2306 H   0  0  0  0  0  0  0  0  0  0  0  0
   -1.5374   -3.2136    3.4324 H   0  0  0  0  0  0  0  0  0  0  0  0
   -1.0012    0.9767    1.2304 H   0  0  0  0  0  0  0  0  0  0  0  0
    0.6014    2.2334    0.0157 H   0  0  0  0  0  0  0  0  0  0  0  0
    0.7816    1.7874   -3.0241 H   0  0  0  0  0  0  0  0  0  0  0  0
    1.6190    3.0580   -2.0858 H   0  0  0  0  0  0  0  0  0  0  0  0
   -1.4590    2.7841   -2.3458 H   0  0  0  0  0  0  0  0  0  0  0  0
   -0.3818    3.3562   -4.5052 H   0  0  0  0  0  0  0  0  0  0  0  0
    0.4903    4.7327   -3.7226 H   0  0  0  0  0  0  0  0  0  0  0  0
   -1.3132    4.7437   -3.8470 H   0  0  0  0  0  0  0  0  0  0  0  0
   -0.8895    3.9354   -0.2370 H   0  0  0  0  0  0  0  0  0  0  0  0
   -1.4633    5.1419   -1.4213 H   0  0  0  0  0  0  0  0  0  0  0  0
    0.3058    4.9933   -1.0896 H   0  0  0  0  0  0  0  0  0  0  0  0
    2.1836    0.2817   -1.6631 H   0  0  0  0  0  0  0  0  0  0  0  0
    2.8785   -1.7810    2.2788 H   0  0  0  0  0  0  0  0  0  0  0  0
    4.2955   -0.6737    2.2295 H   0  0  0  0  0  0  0  0  0  0  0  0
    6.4285   -1.4193    1.2268 H   0  0  0  0  0  0  0  0  0  0  0  0
    7.8627   -3.3250    0.5846 H   0  0  0  0  0  0  0  0  0  0  0  0
    6.8757   -5.5762    0.2611 H   0  0  0  0  0  0  0  0  0  0  0  0
    4.4406   -5.9200    0.5746 H   0  0  0  0  0  0  0  0  0  0  0  0
    2.9903   -4.0266    1.2170 H   0  0  0  0  0  0  0  0  0  0  0  0
  1  2  1  0
  1  3  1  0
  3  4  1  0
  4  5  1  0
  1  6  1  0
  6  7  1  0
  7  8  1  0
  8  9  1  0
  8 10  1  0
  6 11  1  0
 11 12  1  0
 12 13  2  0
 12 14  1  0
 14 15  1  0
 15 16  1  0
 16 17  1  0
 16 18  1  0
 14 19  1  0
 19 20  1  0
 20 21  2  0
 20 22  1  0
 22 23  1  0
 23 24  1  0
 24 25  2  0
 25 26  1  0
 26 27  2  0
 27 28  1  0
 28 29  2  0
 29 24  1  0
  1 30  1  1
  2 31  1  0
  3 32  1  0
  3 33  1  0
  5 34  1  0
  5 35  1  0
  5 36  1  0
  6 37  1  6
  7 38  1  0
  7 39  1  0
  8 40  1  0
  9 41  1  0
  9 42  1  0
  9 43  1  0
 10 44  1  0
 10 45  1  0
 10 46  1  0
 11 47  1  0
 14 48  1  1
 15 49  1  0
 15 50  1  0
 16 51  1  0
 17 52  1  0
 17 53  1  0
 17 54  1  0
 18 55  1  0
 18 56  1  0
 18 57  1  0
 19 58  1  0
 23 59  1  0
 23 60  1  0
 25 61  1  0
 26 62  1  0
 27 63  1  0
 28 64  1  0
 29 65  1  0
M  END
$$$$
