
     RDKit          3D

 56 57  0  0  0  0  0  0  0  0999 V2000
   -2.1342   -0.7652    0.9120 C   0  0  2  0  0  0  0  0  0  0  0  0
   -3.6113   -1.1061    0.5672 C   0  0  0  0  0  0  0  0  0  0  0  0
   -4.2534   -0.2409   -0.5605 C   0  0  0  0  0  0  0  0  0  0  0  0
   -5.2449    0.7832    0.0100 C   0  0  0  0  0  0  0  0  0  0  0  0
   -4.9700   -1.1271   -1.5893 C   0  0  0  0  0  0  0  0  0  0  0  0
   -1.9211    0.6982    1.3658 C   0  0  0  0  0  0  0  0  0  0  0  0
   -2.6641    1.0402    2.6297 C   0  0  0  0  0  0  0  0  0  0  0  0
   -2.7226    0.2079    3.5752 O   0  0  0  0  0  0  0  0  0  0  0  0
   -3.2360    2.3403    2.7967 N   0  0  0  0  0  0  0  0  0  0  0  0
   -3.9023    2.6588    3.9320 O   0  0  0  0  0  0  0  0  0  0  0  0
   -1.1658   -1.1268   -0.1967 C   0  0  0  0  0  0  0  0  0  0  0  0
   -1.5753   -1.3133   -1.3750 O   0  0  0  0  0  0  0  0  0  0  0  0
    0.2330   -1.2596    0.1010 N   0  0  0  0  0  0  0  0  0  0  0  0
    1.2261   -1.6070   -0.9260 C   0  0  1  0  0  0  0  0  0  0  0  0
    1.5094   -0.4099   -1.8558 C   0  0  0  0  0  0  0  0  0  0  0  0
    1.9834    0.8068   -1.1107 C   0  0  0  0  0  0  0  0  0  0  0  0
    1.1810    1.7929   -0.5448 C   0  0  0  0  0  0  0  0  0  0  0  0
    1.9401    2.7086    0.0985 N   0  0  0  0  0  0  0  0  0  0  0  0
    3.2143    2.3085   -0.0547 C   0  0  0  0  0  0  0  0  0  0  0  0
    4.3598    2.9297    0.4411 C   0  0  0  0  0  0  0  0  0  0  0  0
    5.6034    2.3322    0.1656 C   0  0  0  0  0  0  0  0  0  0  0  0
    5.6736    1.1419   -0.5916 C   0  0  0  0  0  0  0  0  0  0  0  0
    4.5012    0.5378   -1.0802 C   0  0  0  0  0  0  0  0  0  0  0  0
    3.2821    1.1513   -0.7881 C   0  0  0  0  0  0  0  0  0  0  0  0
    2.5036   -2.1289   -0.3090 C   0  0  0  0  0  0  0  0  0  0  0  0
    2.9089   -1.6745    0.7965 O   0  0  0  0  0  0  0  0  0  0  0  0
    3.2971   -3.0884   -1.0191 N   0  0  0  0  0  0  0  0  0  0  0  0
    4.5709   -3.5665   -0.4968 C   0  0  0  0  0  0  0  0  0  0  0  0
   -1.8595   -1.4207    1.7685 H   0  0  0  0  0  0  0  0  0  0  0  0
   -4.2202   -1.0385    1.4954 H   0  0  0  0  0  0  0  0  0  0  0  0
   -3.6417   -2.1841    0.2912 H   0  0  0  0  0  0  0  0  0  0  0  0
   -3.4716    0.3259   -1.1093 H   0  0  0  0  0  0  0  0  0  0  0  0
   -5.6741    1.3996   -0.8087 H   0  0  0  0  0  0  0  0  0  0  0  0
   -4.7350    1.4677    0.7145 H   0  0  0  0  0  0  0  0  0  0  0  0
   -6.0747    0.2721    0.5440 H   0  0  0  0  0  0  0  0  0  0  0  0
   -5.7828   -1.7098   -1.1045 H   0  0  0  0  0  0  0  0  0  0  0  0
   -4.2505   -1.8339   -2.0546 H   0  0  0  0  0  0  0  0  0  0  0  0
   -5.4078   -0.5037   -2.3981 H   0  0  0  0  0  0  0  0  0  0  0  0
   -2.2107    1.3964    0.5531 H   0  0  0  0  0  0  0  0  0  0  0  0
   -0.8428    0.8698    1.5698 H   0  0  0  0  0  0  0  0  0  0  0  0
   -3.1291    3.0625    2.0496 H   0  0  0  0  0  0  0  0  0  0  0  0
   -4.8485    2.4320    3.7427 H   0  0  0  0  0  0  0  0  0  0  0  0
    0.5371   -1.1021    1.0883 H   0  0  0  0  0  0  0  0  0  0  0  0
    0.8069   -2.4288   -1.5477 H   0  0  0  0  0  0  0  0  0  0  0  0
    2.2661   -0.6984   -2.6170 H   0  0  0  0  0  0  0  0  0  0  0  0
    0.5848   -0.1487   -2.4132 H   0  0  0  0  0  0  0  0  0  0  0  0
    0.1017    1.8357   -0.6011 H   0  0  0  0  0  0  0  0  0  0  0  0
    1.6003    3.5516    0.6127 H   0  0  0  0  0  0  0  0  0  0  0  0
    4.2960    3.8414    1.0207 H   0  0  0  0  0  0  0  0  0  0  0  0
    6.5123    2.7881    0.5363 H   0  0  0  0  0  0  0  0  0  0  0  0
    6.6357    0.6914   -0.7977 H   0  0  0  0  0  0  0  0  0  0  0  0
    4.5499   -0.3729   -1.6623 H   0  0  0  0  0  0  0  0  0  0  0  0
    2.9696   -3.4420   -1.9463 H   0  0  0  0  0  0  0  0  0  0  0  0
    5.0226   -4.2899   -1.2079 H   0  0  0  0  0  0  0  0  0  0  0  0
    5.2675   -2.7120   -0.3630 H   0  0  0  0  0  0  0  0  0  0  0  0
    4.4115   -4.0726    0.4785 H   0  0  0  0  0  0  0  0  0  0  0  0
  1  2  1  0
  2  3  1  0
  3  4  1  0
  3  5  1  0
  1  6  1  0
  6  7  1  0
  7  8  2  0
  7  9  1  0
  9 10  1  0
  1 11  1  0
 11 12  2  0
 11 13  1  0
 13 14  1  0
 14 15  1  0
 15 16  1  0
 16 17  2  0
 17 18  1  0
 18 19  1  0
 19 20  2  0
 20 21  1  0
 21 22  2  0
 22 23  1  0
 23 24  2  0
 14 25  1  0
 25 26  2  0
 25 27  1  0
 27 28  1  0
 24 16  1  0
 24 19  1  0
  1 29  1  1
  2 30  1  0
  2 31  1  0
  3 32  1  0
  4 33  1  0
  4 34  1  0
  4 35  1  0
  5 36  1  0
  5 37  1  0
  5 38  1  0
  6 39  1  0
  6 40  1  0
  9 41  1  0
 10 42  1  0
 13 43  1  0
 14 44  1  6
 15 45  1  0
 15 46  1  0
 17 47  1  0
 18 48  1  0
 20 49  1  0
 21 50  1  0
 22 51  1  0
 23 52  1  0
 27 53  1  0
 28 54  1  0
 28 55  1  0
 28 56  1  0
M  END
$$$$
