
     RDKit          3D

 14 14  0  0  0  0  0  0  0  0999 V2000
   -2.4323   -1.0102    0.0281 O   0  0  0  0  0  0  0  0  0  0  0  0
   -1.2162   -0.3319    0.0660 C   0  0  0  0  0  0  0  0  0  0  0  0
   -0.0062   -1.0368    0.1494 C   0  0  0  0  0  0  0  0  0  0  0  0
    1.2121   -0.3425    0.1870 C   0  0  0  0  0  0  0  0  0  0  0  0
    2.4201   -1.0313    0.2697 O   0  0  0  0  0  0  0  0  0  0  0  0
    1.2162    1.0563    0.1409 C   0  0  0  0  0  0  0  0  0  0  0  0
    0.0105    1.7595    0.0578 C   0  0  0  0  0  0  0  0  0  0  0  0
   -1.2035    1.0668    0.0204 C   0  0  0  0  0  0  0  0  0  0  0  0
   -2.4753   -2.0222    0.0594 H   0  0  0  0  0  0  0  0  0  0  0  0
   -0.0127   -2.1190    0.1849 H   0  0  0  0  0  0  0  0  0  0  0  0
    2.4510   -2.0436    0.3048 H   0  0  0  0  0  0  0  0  0  0  0  0
    2.1534    1.5975    0.1696 H   0  0  0  0  0  0  0  0  0  0  0  0
    0.0170    2.8412    0.0223 H   0  0  0  0  0  0  0  0  0  0  0  0
   -2.1342    1.6161   -0.0440 H   0  0  0  0  0  0  0  0  0  0  0  0
  1  2  1  0
  2  3  2  0
  3  4  1  0
  4  5  1  0
  4  6  2  0
  6  7  1  0
  7  8  2  0
  8  2  1  0
  1  9  1  0
  3 10  1  0
  5 11  1  0
  6 12  1  0
  7 13  1  0
  8 14  1  0
M  END
$$$$
