
     RDKit          3D

 23 23  0  0  0  0  0  0  0  0999 V2000
    3.2552   -1.0891    0.1919 C   0  0  0  0  0  0  0  0  0  0  0  0
    1.7973   -0.8330   -0.0446 C   0  0  0  0  0  0  0  0  0  0  0  0
    1.0993    0.1776    0.6468 C   0  0  0  0  0  0  0  0  0  0  0  0
    1.7470    0.9963    1.5781 O   0  0  0  0  0  0  0  0  0  0  0  0
   -0.2773    0.3648    0.3948 C   0  0  0  0  0  0  0  0  0  0  0  0
   -1.0330    1.4289    1.1596 C   0  0  0  0  0  0  0  0  0  0  0  0
   -1.0664    2.6084    0.4061 O   0  0  0  0  0  0  0  0  0  0  0  0
   -0.9149   -0.4186   -0.6022 C   0  0  0  0  0  0  0  0  0  0  0  0
   -2.3831   -0.2471   -0.9371 C   0  0  0  0  0  0  0  0  0  0  0  0
   -2.6567   -0.6753   -2.2440 O   0  0  0  0  0  0  0  0  0  0  0  0
   -0.1739   -1.4338   -1.2296 C   0  0  0  0  0  0  0  0  0  0  0  0
    1.1397   -1.6075   -0.9447 N   0  0  0  0  0  0  0  0  0  0  0  0
    3.8447   -0.1831   -0.0622 H   0  0  0  0  0  0  0  0  0  0  0  0
    3.4242   -1.3615    1.2549 H   0  0  0  0  0  0  0  0  0  0  0  0
    3.6125   -1.9270   -0.4440 H   0  0  0  0  0  0  0  0  0  0  0  0
    2.7303    0.9120    1.8013 H   0  0  0  0  0  0  0  0  0  0  0  0
   -2.0667    1.0857    1.3848 H   0  0  0  0  0  0  0  0  0  0  0  0
   -0.5551    1.6275    2.1442 H   0  0  0  0  0  0  0  0  0  0  0  0
   -1.5912    3.2612    0.9383 H   0  0  0  0  0  0  0  0  0  0  0  0
   -2.6752    0.8224   -0.8580 H   0  0  0  0  0  0  0  0  0  0  0  0
   -2.9840   -0.8400   -0.2125 H   0  0  0  0  0  0  0  0  0  0  0  0
   -3.6367   -0.5775   -2.3680 H   0  0  0  0  0  0  0  0  0  0  0  0
   -0.6360   -2.0912   -1.9541 H   0  0  0  0  0  0  0  0  0  0  0  0
  1  2  1  0
  2  3  2  0
  3  4  1  0
  3  5  1  0
  5  6  1  0
  6  7  1  0
  5  8  2  0
  8  9  1  0
  9 10  1  0
  8 11  1  0
 11 12  2  0
 12  2  1  0
  1 13  1  0
  1 14  1  0
  1 15  1  0
  4 16  1  0
  6 17  1  0
  6 18  1  0
  7 19  1  0
  9 20  1  0
  9 21  1  0
 10 22  1  0
 11 23  1  0
M  END
$$$$
