
     RDKit          3D

 48 48  0  0  0  0  0  0  0  0999 V2000
    6.0567    0.4526   -1.7932 O   0  0  0  0  0  0  0  0  0  0  0  0
    6.9577    0.2195   -0.7432 C   0  0  0  0  0  0  0  0  0  0  0  0
    6.3737   -0.6963    0.3029 C   0  0  0  0  0  0  0  0  0  0  0  0
    7.0449   -0.9685    1.2867 O   0  0  0  0  0  0  0  0  0  0  0  0
    4.9825   -1.2544    0.1870 C   0  0  0  0  0  0  0  0  0  0  0  0
    4.0564   -0.2227    0.4302 O   0  0  0  0  0  0  0  0  0  0  0  0
    2.4842   -0.8393    0.1924 P   0  0  0  0  0  5  0  0  0  0  0  0
    2.3195   -1.3998   -1.3977 O   0  0  0  0  0  0  0  0  0  0  0  0
    2.2267   -1.9748    1.1591 O   0  0  0  0  0  0  0  0  0  0  0  0
    1.3638    0.4164    0.4856 O   0  0  0  0  0  0  0  0  0  0  0  0
    0.0494   -0.0027    0.1582 C   0  0  0  0  0  0  0  0  0  0  0  0
   -0.3949    0.6727   -1.1548 C   0  0  2  0  0  0  0  0  0  0  0  0
   -0.3820    2.0726   -1.0080 O   0  0  0  0  0  0  0  0  0  0  0  0
   -1.8057    0.1870   -1.5844 C   0  0  2  0  0  0  0  0  0  0  0  0
   -2.4311    1.1856   -2.3530 O   0  0  0  0  0  0  0  0  0  0  0  0
   -2.7186   -0.2288   -0.3920 C   0  0  1  0  0  0  0  0  0  0  0  0
   -2.5419   -1.6151   -0.1435 O   0  0  0  0  0  0  0  0  0  0  0  0
   -4.0533   -2.3999   -0.0045 P   0  0  0  0  0  5  0  0  0  0  0  0
   -3.7958   -4.0428    0.3047 O   0  0  0  0  0  0  0  0  0  0  0  0
   -4.9244   -2.2349   -1.4465 O   0  0  0  0  0  0  0  0  0  0  0  0
   -4.8475   -1.8024    1.1351 O   0  0  0  0  0  0  0  0  0  0  0  0
   -2.3865    0.5600    0.8929 C   0  0  2  0  0  0  0  0  0  0  0  0
   -2.6593    1.9310    0.6555 O   0  0  0  0  0  0  0  0  0  0  0  0
   -3.3735    2.6430    2.0351 P   0  0  0  0  0  5  0  0  0  0  0  0
   -4.8863    1.9389    2.3202 O   0  0  0  0  0  0  0  0  0  0  0  0
   -3.5785    4.2988    1.7554 O   0  0  0  0  0  0  0  0  0  0  0  0
   -2.4882    2.4497    3.2466 O   0  0  0  0  0  0  0  0  0  0  0  0
   -0.8961    0.3811    1.3238 C   0  0  1  0  0  0  0  0  0  0  0  0
   -0.7987   -0.6053    2.3202 O   0  0  0  0  0  0  0  0  0  0  0  0
    5.4435    1.1718   -1.4892 H   0  0  0  0  0  0  0  0  0  0  0  0
    7.2618    1.1812   -0.2703 H   0  0  0  0  0  0  0  0  0  0  0  0
    7.8697   -0.2555   -1.1615 H   0  0  0  0  0  0  0  0  0  0  0  0
    4.8579   -2.0724    0.9329 H   0  0  0  0  0  0  0  0  0  0  0  0
    4.8631   -1.6802   -0.8346 H   0  0  0  0  0  0  0  0  0  0  0  0
    2.6365   -0.6503   -1.9621 H   0  0  0  0  0  0  0  0  0  0  0  0
   -0.0390   -1.1066    0.0104 H   0  0  0  0  0  0  0  0  0  0  0  0
    0.3157    0.3867   -1.9651 H   0  0  0  0  0  0  0  0  0  0  0  0
    0.5627    2.3659   -1.0930 H   0  0  0  0  0  0  0  0  0  0  0  0
   -1.6586   -0.7130   -2.2295 H   0  0  0  0  0  0  0  0  0  0  0  0
   -3.1362    0.7391   -2.8915 H   0  0  0  0  0  0  0  0  0  0  0  0
   -3.7672    0.0336   -0.6750 H   0  0  0  0  0  0  0  0  0  0  0  0
   -3.2272   -4.3532   -0.4444 H   0  0  0  0  0  0  0  0  0  0  0  0
   -4.2930   -2.5173   -2.1553 H   0  0  0  0  0  0  0  0  0  0  0  0
   -3.0446    0.1301    1.6856 H   0  0  0  0  0  0  0  0  0  0  0  0
   -5.2583    2.4415    3.0882 H   0  0  0  0  0  0  0  0  0  0  0  0
   -2.6786    4.6244    1.5001 H   0  0  0  0  0  0  0  0  0  0  0  0
   -0.5347    1.3502    1.7436 H   0  0  0  0  0  0  0  0  0  0  0  0
   -1.1267   -0.1974    3.1641 H   0  0  0  0  0  0  0  0  0  0  0  0
  1  2  1  0
  2  3  1  0
  3  4  2  0
  3  5  1  0
  5  6  1  0
  6  7  1  0
  7  8  1  0
  7  9  2  0
  7 10  1  0
 10 11  1  0
 11 12  1  0
 12 13  1  0
 12 14  1  0
 14 15  1  0
 14 16  1  0
 16 17  1  0
 17 18  1  0
 18 19  1  0
 18 20  1  0
 18 21  2  0
 16 22  1  0
 22 23  1  0
 23 24  1  0
 24 25  1  0
 24 26  1  0
 24 27  2  0
 22 28  1  0
 28 29  1  0
 28 11  1  0
  1 30  1  0
  2 31  1  0
  2 32  1  0
  5 33  1  0
  5 34  1  0
  8 35  1  0
 11 36  1  0
 12 37  1  6
 13 38  1  0
 14 39  1  6
 15 40  1  0
 16 41  1  6
 19 42  1  0
 20 43  1  0
 22 44  1  1
 25 45  1  0
 26 46  1  0
 28 47  1  1
 29 48  1  0
M  END
$$$$
