
     RDKit          3D

 42 43  0  0  0  0  0  0  0  0999 V2000
   -3.8795   -4.0115    0.1501 O   0  0  0  0  0  0  0  0  0  0  0  0
   -2.5966   -3.5210    0.4331 C   0  0  0  0  0  0  0  0  0  0  0  0
   -2.6543   -2.0326    0.7873 C   0  0  0  0  0  0  0  0  0  0  0  0
   -3.2480   -1.2407   -0.3093 N   0  0  0  0  0  0  0  0  0  0  0  0
   -3.9375   -0.0195    0.1579 C   0  0  0  0  0  0  0  0  0  0  0  0
   -3.0224    0.9973    0.7944 C   0  0  0  0  0  0  0  0  0  0  0  0
   -2.4097    0.7152    1.8588 O   0  0  0  0  0  0  0  0  0  0  0  0
   -2.9015    2.3092    0.2371 N   0  0  0  0  0  0  0  0  0  0  0  0
   -2.2001    3.2699    0.8857 O   0  0  0  0  0  0  0  0  0  0  0  0
   -2.1343   -0.9252   -1.6307 S   0  0  0  0  0  6  0  0  0  0  0  0
   -2.7175    0.1235   -2.5376 O   0  0  0  0  0  0  0  0  0  0  0  0
   -1.9660   -2.1783   -2.4429 O   0  0  0  0  0  0  0  0  0  0  0  0
   -0.5384   -0.3895   -1.0905 C   0  0  0  0  0  0  0  0  0  0  0  0
   -0.1940    0.9673   -1.1333 C   0  0  0  0  0  0  0  0  0  0  0  0
    1.0680    1.3907   -0.7088 C   0  0  0  0  0  0  0  0  0  0  0  0
    2.0166    0.4593   -0.2503 C   0  0  0  0  0  0  0  0  0  0  0  0
    1.6764   -0.9052   -0.2376 C   0  0  0  0  0  0  0  0  0  0  0  0
    0.4127   -1.3249   -0.6617 C   0  0  0  0  0  0  0  0  0  0  0  0
    3.3564    0.9092    0.2061 C   0  0  0  0  0  0  0  0  0  0  0  0
    4.5106    0.1742   -0.1257 C   0  0  0  0  0  0  0  0  0  0  0  0
    5.7703    0.6009    0.3058 C   0  0  0  0  0  0  0  0  0  0  0  0
    5.8927    1.7621    1.0720 C   0  0  0  0  0  0  0  0  0  0  0  0
    4.7555    2.4997    1.4081 C   0  0  0  0  0  0  0  0  0  0  0  0
    3.4933    2.0784    0.9786 C   0  0  0  0  0  0  0  0  0  0  0  0
   -4.0665   -3.7905   -0.7994 H   0  0  0  0  0  0  0  0  0  0  0  0
   -2.1932   -4.0770    1.3056 H   0  0  0  0  0  0  0  0  0  0  0  0
   -1.9045   -3.7072   -0.4162 H   0  0  0  0  0  0  0  0  0  0  0  0
   -1.6411   -1.6677    1.0491 H   0  0  0  0  0  0  0  0  0  0  0  0
   -3.2737   -1.9444    1.7080 H   0  0  0  0  0  0  0  0  0  0  0  0
   -4.7233   -0.2962    0.8937 H   0  0  0  0  0  0  0  0  0  0  0  0
   -4.4840    0.4403   -0.6925 H   0  0  0  0  0  0  0  0  0  0  0  0
   -3.3899    2.5510   -0.6539 H   0  0  0  0  0  0  0  0  0  0  0  0
   -1.2814    3.2076    0.5199 H   0  0  0  0  0  0  0  0  0  0  0  0
   -0.8974    1.7003   -1.5038 H   0  0  0  0  0  0  0  0  0  0  0  0
    1.3092    2.4451   -0.7591 H   0  0  0  0  0  0  0  0  0  0  0  0
    2.3811   -1.6470    0.1164 H   0  0  0  0  0  0  0  0  0  0  0  0
    0.1741   -2.3800   -0.6454 H   0  0  0  0  0  0  0  0  0  0  0  0
    4.4413   -0.7194   -0.7332 H   0  0  0  0  0  0  0  0  0  0  0  0
    6.6529    0.0322    0.0426 H   0  0  0  0  0  0  0  0  0  0  0  0
    6.8688    2.0904    1.4052 H   0  0  0  0  0  0  0  0  0  0  0  0
    4.8512    3.3975    2.0051 H   0  0  0  0  0  0  0  0  0  0  0  0
    2.6237    2.6563    1.2652 H   0  0  0  0  0  0  0  0  0  0  0  0
  1  2  1  0
  2  3  1  0
  3  4  1  0
  4  5  1  0
  5  6  1  0
  6  7  2  0
  6  8  1  0
  8  9  1  0
  4 10  1  0
 10 11  2  0
 10 12  2  0
 10 13  1  0
 13 14  2  0
 14 15  1  0
 15 16  2  0
 16 17  1  0
 17 18  2  0
 16 19  1  0
 19 20  2  0
 20 21  1  0
 21 22  2  0
 22 23  1  0
 23 24  2  0
 18 13  1  0
 24 19  1  0
  1 25  1  0
  2 26  1  0
  2 27  1  0
  3 28  1  0
  3 29  1  0
  5 30  1  0
  5 31  1  0
  8 32  1  0
  9 33  1  0
 14 34  1  0
 15 35  1  0
 17 36  1  0
 18 37  1  0
 20 38  1  0
 21 39  1  0
 22 40  1  0
 23 41  1  0
 24 42  1  0
M  END
$$$$
