
     RDKit          3D

 42 43  0  0  0  0  0  0  0  0999 V2000
    1.3194   -1.0509   -2.0080 C   0  0  0  0  0  0  0  0  0  0  0  0
    1.2744   -0.6447   -0.5269 C   0  0  2  0  0  0  0  0  0  0  0  0
    1.6611    0.7050   -0.4314 O   0  0  0  0  0  0  0  0  0  0  0  0
    2.2573   -1.5302    0.2858 C   0  0  0  0  0  0  0  0  0  0  0  0
    3.5974   -1.4143   -0.2011 O   0  0  0  0  0  0  0  0  0  0  0  0
    4.5124   -0.3962    0.1142 C   0  0  0  0  0  0  0  0  0  0  0  0
    4.3222    0.5063    1.1808 C   0  0  0  0  0  0  0  0  0  0  0  0
    5.2736    1.4977    1.4421 C   0  0  0  0  0  0  0  0  0  0  0  0
    6.4215    1.5956    0.6517 C   0  0  0  0  0  0  0  0  0  0  0  0
    7.3421    2.5572    0.9082 F   0  0  0  0  0  0  0  0  0  0  0  0
    6.6218    0.6985   -0.4002 C   0  0  0  0  0  0  0  0  0  0  0  0
    5.6729   -0.2935   -0.6644 C   0  0  0  0  0  0  0  0  0  0  0  0
   -0.1565   -0.8059   -0.0332 C   0  0  0  0  0  0  0  0  0  0  0  0
   -0.4537   -1.7423    0.7594 O   0  0  0  0  0  0  0  0  0  0  0  0
   -1.1722    0.1125   -0.4737 N   0  0  0  0  0  0  0  0  0  0  0  0
   -2.5808   -0.0836   -0.2614 C   0  0  0  0  0  0  0  0  0  0  0  0
   -3.4034    1.0284   -0.0411 C   0  0  0  0  0  0  0  0  0  0  0  0
   -4.7909    0.8835    0.1620 C   0  0  0  0  0  0  0  0  0  0  0  0
   -5.3661   -0.4132    0.0635 C   0  0  0  0  0  0  0  0  0  0  0  0
   -4.5319   -1.5196   -0.1627 C   0  0  0  0  0  0  0  0  0  0  0  0
   -3.1574   -1.3586   -0.3294 C   0  0  0  0  0  0  0  0  0  0  0  0
   -6.7828   -0.6326    0.1784 N   0  0  0  0  0  4  0  0  0  0  0  0
   -7.2519   -1.7980    0.7397 O   0  0  0  0  0  1  0  0  0  0  0  0
   -7.5897    0.1194   -0.4054 O   0  0  0  0  0  0  0  0  0  0  0  0
   -5.6276    2.1124    0.4606 C   0  0  0  0  0  0  0  0  0  0  0  0
   -6.2902    2.5102   -0.6858 F   0  0  0  0  0  0  0  0  0  0  0  0
   -4.8411    3.1647    0.8986 F   0  0  0  0  0  0  0  0  0  0  0  0
   -6.5494    1.8388    1.4556 F   0  0  0  0  0  0  0  0  0  0  0  0
    2.3405   -0.9097   -2.4223 H   0  0  0  0  0  0  0  0  0  0  0  0
    0.6231   -0.4232   -2.6050 H   0  0  0  0  0  0  0  0  0  0  0  0
    1.0287   -2.1167   -2.1324 H   0  0  0  0  0  0  0  0  0  0  0  0
    1.5108    0.9977    0.5059 H   0  0  0  0  0  0  0  0  0  0  0  0
    2.2044   -1.3061    1.3713 H   0  0  0  0  0  0  0  0  0  0  0  0
    1.9565   -2.5946    0.1760 H   0  0  0  0  0  0  0  0  0  0  0  0
    3.4557    0.4512    1.8216 H   0  0  0  0  0  0  0  0  0  0  0  0
    5.1212    2.1884    2.2616 H   0  0  0  0  0  0  0  0  0  0  0  0
    7.5120    0.7705   -1.0117 H   0  0  0  0  0  0  0  0  0  0  0  0
    5.8364   -0.9836   -1.4825 H   0  0  0  0  0  0  0  0  0  0  0  0
   -0.8663    1.0120   -0.9089 H   0  0  0  0  0  0  0  0  0  0  0  0
   -2.9458    2.0094   -0.0105 H   0  0  0  0  0  0  0  0  0  0  0  0
   -4.9544   -2.5132   -0.2444 H   0  0  0  0  0  0  0  0  0  0  0  0
   -2.5534   -2.2287   -0.5499 H   0  0  0  0  0  0  0  0  0  0  0  0
  1  2  1  0
  2  3  1  6
  2  4  1  0
  4  5  1  0
  5  6  1  0
  6  7  2  0
  7  8  1  0
  8  9  2  0
  9 10  1  0
  9 11  1  0
 11 12  2  0
  2 13  1  0
 13 14  2  0
 13 15  1  0
 15 16  1  0
 16 17  2  0
 17 18  1  0
 18 19  2  0
 19 20  1  0
 20 21  2  0
 19 22  1  0
 22 23  1  0
 22 24  2  0
 18 25  1  0
 25 26  1  0
 25 27  1  0
 25 28  1  0
 12  6  1  0
 21 16  1  0
  1 29  1  0
  1 30  1  0
  1 31  1  0
  3 32  1  0
  4 33  1  0
  4 34  1  0
  7 35  1  0
  8 36  1  0
 11 37  1  0
 12 38  1  0
 15 39  1  0
 17 40  1  0
 20 41  1  0
 21 42  1  0
M  CHG  2  22   1  23  -1
M  END
$$$$
