
     RDKit          3D

 83 87  0  0  0  0  0  0  0  0999 V2000
    7.1316   -0.9262   -1.1372 C   0  0  1  0  0  0  0  0  0  0  0  0
    7.6824   -1.3232    0.2427 C   0  0  0  0  0  0  0  0  0  0  0  0
    7.3400   -0.1329    1.1361 C   0  0  0  0  0  0  0  0  0  0  0  0
    6.6209    0.8476    0.1942 C   0  0  2  0  0  0  0  0  0  0  0  0
    5.0934    0.6031    0.2009 C   0  0  0  0  0  0  0  0  0  0  0  0
    4.7404   -0.8582   -0.2016 C   0  0  2  0  0  0  0  0  0  0  0  0
    5.6737   -1.4112   -1.3147 C   0  0  0  0  0  0  0  0  0  0  0  0
    2.9979   -0.9710   -0.7593 S   0  0  0  0  0  0  0  0  0  0  0  0
    2.2551   -1.0141    0.9055 C   0  0  0  0  0  0  0  0  0  0  0  0
    0.7730   -1.0751    0.7704 C   0  0  0  0  0  0  0  0  0  0  0  0
    0.1788   -2.1815    0.8766 O   0  0  0  0  0  0  0  0  0  0  0  0
    0.0643    0.1040    0.5108 O   0  0  0  0  0  0  0  0  0  0  0  0
   -1.3221    0.1562    0.1509 C   0  0  2  0  0  0  0  0  0  0  0  0
   -1.4137   -0.0401   -1.4084 C   0  0  0  0  0  0  0  0  0  0  0  0
   -2.3594   -1.1625   -1.9624 C   0  0  1  0  0  0  0  0  0  0  0  0
   -2.1204   -1.2023   -3.4959 C   0  0  0  0  0  0  0  0  0  0  0  0
   -1.8329   -2.5050   -1.4324 C   0  0  0  0  0  0  0  0  0  0  0  0
   -2.5345   -3.5326   -0.9360 C   0  0  0  0  0  0  0  0  0  0  0  0
   -3.9049   -0.8275   -1.7373 C   0  0  1  0  0  0  0  0  0  0  0  0
   -4.7373   -1.6060   -2.5723 O   0  0  0  0  0  0  0  0  0  0  0  0
   -4.4000   -0.8502   -0.2433 C   0  0  2  0  0  0  0  0  0  0  0  0
   -5.7531   -1.5951   -0.0833 C   0  0  0  0  0  0  0  0  0  0  0  0
   -4.4099    0.5399    0.5577 C   0  0  2  0  0  0  0  0  0  0  0  0
   -5.7865    1.2581    0.3975 C   0  0  0  0  0  0  0  0  0  0  0  0
   -5.5759    2.7391    0.6685 C   0  0  0  0  0  0  0  0  0  0  0  0
   -4.1371    2.9348    0.3930 C   0  0  0  0  0  0  0  0  0  0  0  0
   -3.6453    4.0484    0.3085 O   0  0  0  0  0  0  0  0  0  0  0  0
   -3.4053    1.6562    0.0783 C   0  0  1  0  0  0  0  0  0  0  0  0
   -1.9558    1.5177    0.6740 C   0  0  2  0  0  0  0  0  0  0  0  0
   -1.0508    2.6845    0.1593 C   0  0  0  0  0  0  0  0  0  0  0  0
   -2.0373    1.6253    2.2642 C   0  0  2  0  0  0  0  0  0  0  0  0
   -0.9128    0.9081    3.0320 C   0  0  0  0  0  0  0  0  0  0  0  0
   -3.4204    1.2710    2.8738 C   0  0  0  0  0  0  0  0  0  0  0  0
   -4.1720    0.2024    2.0831 C   0  0  0  0  0  0  0  0  0  0  0  0
    7.0896    0.5386   -1.1595 N   0  0  0  0  0  0  0  0  0  0  0  0
    8.4072    1.1338   -1.4471 C   0  0  0  0  0  0  0  0  0  0  0  0
    7.7606   -1.3381   -1.9587 H   0  0  0  0  0  0  0  0  0  0  0  0
    8.7851   -1.4547    0.1874 H   0  0  0  0  0  0  0  0  0  0  0  0
    7.2339   -2.2667    0.6238 H   0  0  0  0  0  0  0  0  0  0  0  0
    8.2713    0.3313    1.5279 H   0  0  0  0  0  0  0  0  0  0  0  0
    6.7069   -0.4350    1.9991 H   0  0  0  0  0  0  0  0  0  0  0  0
    6.8270    1.9051    0.4758 H   0  0  0  0  0  0  0  0  0  0  0  0
    4.6875    0.8292    1.2099 H   0  0  0  0  0  0  0  0  0  0  0  0
    4.6242    1.3109   -0.5172 H   0  0  0  0  0  0  0  0  0  0  0  0
    4.8676   -1.5089    0.6908 H   0  0  0  0  0  0  0  0  0  0  0  0
    5.6406   -2.5225   -1.3145 H   0  0  0  0  0  0  0  0  0  0  0  0
    5.3147   -1.0657   -2.3093 H   0  0  0  0  0  0  0  0  0  0  0  0
    2.5256   -0.0984    1.4698 H   0  0  0  0  0  0  0  0  0  0  0  0
    2.6218   -1.9036    1.4611 H   0  0  0  0  0  0  0  0  0  0  0  0
   -1.8210   -0.6762    0.6691 H   0  0  0  0  0  0  0  0  0  0  0  0
   -0.3842   -0.2724   -1.7657 H   0  0  0  0  0  0  0  0  0  0  0  0
   -1.6224    0.9062   -1.9397 H   0  0  0  0  0  0  0  0  0  0  0  0
   -2.4656   -0.2600   -3.9743 H   0  0  0  0  0  0  0  0  0  0  0  0
   -1.0421   -1.3314   -3.7365 H   0  0  0  0  0  0  0  0  0  0  0  0
   -2.6588   -2.0509   -3.9691 H   0  0  0  0  0  0  0  0  0  0  0  0
   -0.7644   -2.6749   -1.5411 H   0  0  0  0  0  0  0  0  0  0  0  0
   -2.0116   -4.4356   -0.6377 H   0  0  0  0  0  0  0  0  0  0  0  0
   -3.6016   -3.5217   -0.7978 H   0  0  0  0  0  0  0  0  0  0  0  0
   -4.0790    0.1855   -2.1336 H   0  0  0  0  0  0  0  0  0  0  0  0
   -4.4666   -2.5536   -2.5149 H   0  0  0  0  0  0  0  0  0  0  0  0
   -3.7094   -1.5317    0.2715 H   0  0  0  0  0  0  0  0  0  0  0  0
   -6.5475   -1.1277   -0.7014 H   0  0  0  0  0  0  0  0  0  0  0  0
   -5.6686   -2.6567   -0.3918 H   0  0  0  0  0  0  0  0  0  0  0  0
   -6.0781   -1.5988    0.9780 H   0  0  0  0  0  0  0  0  0  0  0  0
   -6.1328    1.1593   -0.6559 H   0  0  0  0  0  0  0  0  0  0  0  0
   -6.5803    0.8490    1.0592 H   0  0  0  0  0  0  0  0  0  0  0  0
   -5.8110    2.9950    1.7228 H   0  0  0  0  0  0  0  0  0  0  0  0
   -6.1965    3.3584   -0.0149 H   0  0  0  0  0  0  0  0  0  0  0  0
   -3.3440    1.7224   -1.0132 H   0  0  0  0  0  0  0  0  0  0  0  0
   -1.1181    2.8115   -0.9396 H   0  0  0  0  0  0  0  0  0  0  0  0
    0.0140    2.5193    0.4234 H   0  0  0  0  0  0  0  0  0  0  0  0
   -1.3135    3.6591    0.6142 H   0  0  0  0  0  0  0  0  0  0  0  0
   -1.9030    2.6958    2.5387 H   0  0  0  0  0  0  0  0  0  0  0  0
   -0.9758    1.1481    4.1151 H   0  0  0  0  0  0  0  0  0  0  0  0
    0.0815    1.2610    2.6883 H   0  0  0  0  0  0  0  0  0  0  0  0
   -0.9952   -0.1932    2.9231 H   0  0  0  0  0  0  0  0  0  0  0  0
   -4.0454    2.1829    2.9496 H   0  0  0  0  0  0  0  0  0  0  0  0
   -3.3126    0.9201    3.9241 H   0  0  0  0  0  0  0  0  0  0  0  0
   -5.1372    0.0035    2.5968 H   0  0  0  0  0  0  0  0  0  0  0  0
   -3.5849   -0.7292    2.2204 H   0  0  0  0  0  0  0  0  0  0  0  0
    9.1836    0.8117   -0.7203 H   0  0  0  0  0  0  0  0  0  0  0  0
    8.7330    0.8464   -2.4693 H   0  0  0  0  0  0  0  0  0  0  0  0
    8.3314    2.2416   -1.4218 H   0  0  0  0  0  0  0  0  0  0  0  0
  1  2  1  0
  2  3  1  0
  3  4  1  0
  4  5  1  0
  5  6  1  0
  6  7  1  0
  6  8  1  0
  8  9  1  0
  9 10  1  0
 10 11  2  0
 10 12  1  0
 12 13  1  0
 13 14  1  0
 14 15  1  0
 15 16  1  6
 15 17  1  0
 17 18  2  3
 15 19  1  0
 19 20  1  0
 19 21  1  0
 21 22  1  0
 21 23  1  0
 23 24  1  1
 24 25  1  0
 25 26  1  0
 26 27  2  0
 26 28  1  0
 28 29  1  0
 29 30  1  6
 29 31  1  0
 31 32  1  0
 31 33  1  0
 33 34  1  0
  4 35  1  0
 35 36  1  0
  7  1  1  0
 29 13  1  0
 35  1  1  0
 28 23  1  0
 34 23  1  0
  1 37  1  6
  2 38  1  0
  2 39  1  0
  3 40  1  0
  3 41  1  0
  4 42  1  1
  5 43  1  0
  5 44  1  0
  6 45  1  1
  7 46  1  0
  7 47  1  0
  9 48  1  0
  9 49  1  0
 13 50  1  1
 14 51  1  0
 14 52  1  0
 16 53  1  0
 16 54  1  0
 16 55  1  0
 17 56  1  0
 18 57  1  0
 18 58  1  0
 19 59  1  6
 20 60  1  0
 21 61  1  1
 22 62  1  0
 22 63  1  0
 22 64  1  0
 24 65  1  0
 24 66  1  0
 25 67  1  0
 25 68  1  0
 28 69  1  6
 30 70  1  0
 30 71  1  0
 30 72  1  0
 31 73  1  6
 32 74  1  0
 32 75  1  0
 32 76  1  0
 33 77  1  0
 33 78  1  0
 34 79  1  0
 34 80  1  0
 36 81  1  0
 36 82  1  0
 36 83  1  0
M  END
$$$$
