
     RDKit          3D

 37 39  0  0  0  0  0  0  0  0999 V2000
   -7.0966    0.4418    0.9974 C   0  0  0  0  0  0  0  0  0  0  0  0
   -5.7562    0.3281    1.5566 N   0  0  0  0  0  0  0  0  0  0  0  0
   -4.6227    0.0410    0.7340 C   0  0  0  0  0  0  0  0  0  0  0  0
   -4.6929   -0.1389   -0.6024 N   0  0  0  0  0  0  0  0  0  0  0  0
   -3.4704   -0.3897   -1.1463 C   0  0  0  0  0  0  0  0  0  0  0  0
   -3.3201   -0.5688   -2.6249 C   0  0  0  0  0  0  0  0  0  0  0  0
   -2.4152   -0.4306   -0.2191 C   0  0  0  0  0  0  0  0  0  0  0  0
   -3.0516   -0.0979    1.3061 S   0  0  0  0  0  0  0  0  0  0  0  0
   -0.9785   -0.6607   -0.4686 C   0  0  0  0  0  0  0  0  0  0  0  0
   -0.5309   -1.5981   -1.4089 C   0  0  0  0  0  0  0  0  0  0  0  0
    0.8415   -1.7822   -1.5672 C   0  0  0  0  0  0  0  0  0  0  0  0
    1.7138   -1.0692   -0.8106 N   0  0  0  0  0  0  0  0  0  0  0  0
    1.2719   -0.1646    0.1045 C   0  0  0  0  0  0  0  0  0  0  0  0
    2.1957    0.5583    0.9306 N   0  0  0  0  0  0  0  0  0  0  0  0
    3.6124    0.6226    0.6947 C   0  0  0  0  0  0  0  0  0  0  0  0
    4.4901    0.6832    1.7879 C   0  0  0  0  0  0  0  0  0  0  0  0
    5.8706    0.7697    1.5841 C   0  0  0  0  0  0  0  0  0  0  0  0
    6.3886    0.8141    0.2861 C   0  0  0  0  0  0  0  0  0  0  0  0
    7.7661    0.8995    0.0972 O   0  0  0  0  0  0  0  0  0  0  0  0
    5.5175    0.7779   -0.8108 C   0  0  0  0  0  0  0  0  0  0  0  0
    4.1366    0.6904   -0.6091 C   0  0  0  0  0  0  0  0  0  0  0  0
   -0.0646    0.0168    0.2774 N   0  0  0  0  0  0  0  0  0  0  0  0
   -7.8244    0.6668    1.8053 H   0  0  0  0  0  0  0  0  0  0  0  0
   -7.1241    1.2624    0.2499 H   0  0  0  0  0  0  0  0  0  0  0  0
   -7.3836   -0.5140    0.5107 H   0  0  0  0  0  0  0  0  0  0  0  0
   -5.6197    0.4590    2.5841 H   0  0  0  0  0  0  0  0  0  0  0  0
   -2.3720   -0.1134   -2.9796 H   0  0  0  0  0  0  0  0  0  0  0  0
   -3.3407   -1.6493   -2.8756 H   0  0  0  0  0  0  0  0  0  0  0  0
   -4.1594   -0.0692   -3.1532 H   0  0  0  0  0  0  0  0  0  0  0  0
   -1.2191   -2.2014   -1.9832 H   0  0  0  0  0  0  0  0  0  0  0  0
    1.2142   -2.5031   -2.2826 H   0  0  0  0  0  0  0  0  0  0  0  0
    1.8210    0.9985    1.8016 H   0  0  0  0  0  0  0  0  0  0  0  0
    4.1031    0.6524    2.7987 H   0  0  0  0  0  0  0  0  0  0  0  0
    6.5383    0.8048    2.4356 H   0  0  0  0  0  0  0  0  0  0  0  0
    8.1720    0.9350   -0.8306 H   0  0  0  0  0  0  0  0  0  0  0  0
    5.9086    0.8269   -1.8191 H   0  0  0  0  0  0  0  0  0  0  0  0
    3.4811    0.7018   -1.4697 H   0  0  0  0  0  0  0  0  0  0  0  0
  1  2  1  0
  2  3  1  0
  3  4  2  0
  4  5  1  0
  5  6  1  0
  5  7  2  0
  7  8  1  0
  7  9  1  0
  9 10  2  0
 10 11  1  0
 11 12  2  0
 12 13  1  0
 13 14  1  0
 14 15  1  0
 15 16  2  0
 16 17  1  0
 17 18  2  0
 18 19  1  0
 18 20  1  0
 20 21  2  0
 13 22  2  0
  8  3  1  0
 22  9  1  0
 21 15  1  0
  1 23  1  0
  1 24  1  0
  1 25  1  0
  2 26  1  0
  6 27  1  0
  6 28  1  0
  6 29  1  0
 10 30  1  0
 11 31  1  0
 14 32  1  0
 16 33  1  0
 17 34  1  0
 19 35  1  0
 20 36  1  0
 21 37  1  0
M  END
$$$$
