
     RDKit          3D

 41 41  0  0  0  0  0  0  0  0999 V2000
   -5.5239   -2.2308   -0.5534 C   0  0  0  0  0  0  0  0  0  0  0  0
   -5.0343   -0.8447   -0.1174 C   0  0  0  0  0  0  0  0  0  0  0  0
   -6.2410    0.0679    0.1448 C   0  0  0  0  0  0  0  0  0  0  0  0
   -4.2043   -0.9702    1.0982 N   0  0  0  0  0  0  0  0  0  0  0  0
   -2.7892   -1.2710    0.8033 C   0  0  0  0  0  0  0  0  0  0  0  0
   -1.9038   -0.0036    0.7961 C   0  0  2  0  0  0  0  0  0  0  0  0
   -2.3245    0.9017   -0.1937 O   0  0  0  0  0  0  0  0  0  0  0  0
   -0.4244   -0.3656    0.6037 C   0  0  0  0  0  0  0  0  0  0  0  0
    0.3648    0.8217    0.6241 O   0  0  0  0  0  0  0  0  0  0  0  0
    1.7593    0.8498    0.4763 C   0  0  0  0  0  0  0  0  0  0  0  0
    2.5235   -0.3185    0.2923 C   0  0  0  0  0  0  0  0  0  0  0  0
    3.9119   -0.2372    0.1496 C   0  0  0  0  0  0  0  0  0  0  0  0
    4.5584    1.0076    0.1975 C   0  0  0  0  0  0  0  0  0  0  0  0
    6.0478    1.0987    0.0106 C   0  0  0  0  0  0  0  0  0  0  0  0
    6.3743    1.3006   -1.4372 C   0  0  0  0  0  0  0  0  0  0  0  0
    6.4721    0.1822   -2.3188 N   0  0  0  0  0  0  0  0  0  0  0  0
    6.5253    2.4672   -1.8887 O   0  0  0  0  0  0  0  0  0  0  0  0
    3.7945    2.1721    0.3691 C   0  0  0  0  0  0  0  0  0  0  0  0
    2.4065    2.0903    0.5118 C   0  0  0  0  0  0  0  0  0  0  0  0
   -6.1567   -2.1475   -1.4628 H   0  0  0  0  0  0  0  0  0  0  0  0
   -4.6652   -2.8907   -0.7949 H   0  0  0  0  0  0  0  0  0  0  0  0
   -6.1178   -2.7048    0.2573 H   0  0  0  0  0  0  0  0  0  0  0  0
   -4.4550   -0.3948   -0.9535 H   0  0  0  0  0  0  0  0  0  0  0  0
   -5.8949    1.0921    0.4004 H   0  0  0  0  0  0  0  0  0  0  0  0
   -6.8517   -0.3254    0.9859 H   0  0  0  0  0  0  0  0  0  0  0  0
   -6.8777    0.1381   -0.7631 H   0  0  0  0  0  0  0  0  0  0  0  0
   -4.2671   -0.1069    1.6881 H   0  0  0  0  0  0  0  0  0  0  0  0
   -2.6755   -1.8183   -0.1587 H   0  0  0  0  0  0  0  0  0  0  0  0
   -2.4189   -1.9537    1.5979 H   0  0  0  0  0  0  0  0  0  0  0  0
   -1.9989    0.4978    1.7842 H   0  0  0  0  0  0  0  0  0  0  0  0
   -2.1811    0.4687   -1.0760 H   0  0  0  0  0  0  0  0  0  0  0  0
   -0.0990   -1.0376    1.4279 H   0  0  0  0  0  0  0  0  0  0  0  0
   -0.2872   -0.8883   -0.3684 H   0  0  0  0  0  0  0  0  0  0  0  0
    2.0552   -1.2924    0.2552 H   0  0  0  0  0  0  0  0  0  0  0  0
    4.4831   -1.1453    0.0011 H   0  0  0  0  0  0  0  0  0  0  0  0
    6.4570    1.9418    0.6093 H   0  0  0  0  0  0  0  0  0  0  0  0
    6.5415    0.1731    0.3785 H   0  0  0  0  0  0  0  0  0  0  0  0
    6.6837    0.3261   -3.3311 H   0  0  0  0  0  0  0  0  0  0  0  0
    6.3302   -0.7896   -1.9643 H   0  0  0  0  0  0  0  0  0  0  0  0
    4.2737    3.1432    0.3909 H   0  0  0  0  0  0  0  0  0  0  0  0
    1.8294    2.9962    0.6475 H   0  0  0  0  0  0  0  0  0  0  0  0
  1  2  1  0
  2  3  1  0
  2  4  1  0
  4  5  1  0
  5  6  1  0
  6  7  1  0
  6  8  1  0
  8  9  1  0
  9 10  1  0
 10 11  2  0
 11 12  1  0
 12 13  2  0
 13 14  1  0
 14 15  1  0
 15 16  1  0
 15 17  2  0
 13 18  1  0
 18 19  2  0
 19 10  1  0
  1 20  1  0
  1 21  1  0
  1 22  1  0
  2 23  1  0
  3 24  1  0
  3 25  1  0
  3 26  1  0
  4 27  1  0
  5 28  1  0
  5 29  1  0
  6 30  1  1
  7 31  1  0
  8 32  1  0
  8 33  1  0
 11 34  1  0
 12 35  1  0
 14 36  1  0
 14 37  1  0
 16 38  1  0
 16 39  1  0
 18 40  1  0
 19 41  1  0
M  END
$$$$
