
     RDKit          3D

 45 46  0  0  0  0  0  0  0  0999 V2000
    7.2690    0.1442   -1.0482 C   0  0  0  0  0  0  0  0  0  0  0  0
    7.0317   -1.1673   -0.3028 C   0  0  0  0  0  0  0  0  0  0  0  0
    5.8558   -1.0942    0.6856 C   0  0  0  0  0  0  0  0  0  0  0  0
    4.4827   -0.9304    0.0006 C   0  0  0  0  0  0  0  0  0  0  0  0
    3.9675    0.5137    0.0690 C   0  0  0  0  0  0  0  0  0  0  0  0
    2.7062    0.6418   -0.6602 N   0  0  0  0  0  0  0  0  0  0  0  0
    1.4472    0.1910   -0.1395 C   0  0  0  0  0  0  0  0  0  0  0  0
    1.3902   -0.3710    1.0287 N   0  0  0  0  0  0  0  0  0  0  0  0
    0.2711    0.3051   -0.9586 N   0  0  0  0  0  0  0  0  0  0  0  0
   -1.0318    0.4552   -0.4467 N   0  0  0  0  0  0  0  0  0  0  0  0
   -1.2990    1.0910    0.6521 C   0  0  0  0  0  0  0  0  0  0  0  0
   -2.6790    1.2037    1.1498 C   0  0  0  0  0  0  0  0  0  0  0  0
   -3.0580    1.8871    2.3004 C   0  0  0  0  0  0  0  0  0  0  0  0
   -4.3940    1.8016    2.4845 N   0  0  0  0  0  0  0  0  0  0  0  0
   -4.8648    1.0692    1.4609 C   0  0  0  0  0  0  0  0  0  0  0  0
   -3.8511    0.6823    0.6206 C   0  0  0  0  0  0  0  0  0  0  0  0
   -4.1033   -0.0922   -0.5151 C   0  0  0  0  0  0  0  0  0  0  0  0
   -5.4322   -0.4727   -0.7870 C   0  0  0  0  0  0  0  0  0  0  0  0
   -5.6771   -1.2497   -1.9288 O   0  0  0  0  0  0  0  0  0  0  0  0
   -6.9648   -1.7068   -2.3284 C   0  0  0  0  0  0  0  0  0  0  0  0
   -6.4740   -0.0650    0.0905 C   0  0  0  0  0  0  0  0  0  0  0  0
   -6.1900    0.7130    1.2258 C   0  0  0  0  0  0  0  0  0  0  0  0
    6.4421    0.3405   -1.7618 H   0  0  0  0  0  0  0  0  0  0  0  0
    7.3558    0.9892   -0.3324 H   0  0  0  0  0  0  0  0  0  0  0  0
    8.2134    0.0734   -1.6278 H   0  0  0  0  0  0  0  0  0  0  0  0
    6.8622   -1.9856   -1.0361 H   0  0  0  0  0  0  0  0  0  0  0  0
    7.9529   -1.4159    0.2677 H   0  0  0  0  0  0  0  0  0  0  0  0
    5.8463   -2.0489    1.2560 H   0  0  0  0  0  0  0  0  0  0  0  0
    6.0352   -0.2869    1.4297 H   0  0  0  0  0  0  0  0  0  0  0  0
    4.5268   -1.2631   -1.0597 H   0  0  0  0  0  0  0  0  0  0  0  0
    3.7513   -1.5895    0.5160 H   0  0  0  0  0  0  0  0  0  0  0  0
    3.8243    0.8249    1.1268 H   0  0  0  0  0  0  0  0  0  0  0  0
    4.7129    1.2005   -0.3827 H   0  0  0  0  0  0  0  0  0  0  0  0
    2.7154    1.1391   -1.5792 H   0  0  0  0  0  0  0  0  0  0  0  0
    0.5053   -0.7580    1.4242 H   0  0  0  0  0  0  0  0  0  0  0  0
    0.3854    0.2348   -1.9938 H   0  0  0  0  0  0  0  0  0  0  0  0
   -0.5073    1.5735    1.2122 H   0  0  0  0  0  0  0  0  0  0  0  0
   -2.3910    2.4182    2.9673 H   0  0  0  0  0  0  0  0  0  0  0  0
   -4.9448    2.2208    3.2663 H   0  0  0  0  0  0  0  0  0  0  0  0
   -3.3077   -0.4003   -1.1783 H   0  0  0  0  0  0  0  0  0  0  0  0
   -7.6337   -0.8419   -2.5227 H   0  0  0  0  0  0  0  0  0  0  0  0
   -7.4002   -2.3579   -1.5411 H   0  0  0  0  0  0  0  0  0  0  0  0
   -6.8664   -2.2965   -3.2626 H   0  0  0  0  0  0  0  0  0  0  0  0
   -7.5012   -0.3451   -0.0978 H   0  0  0  0  0  0  0  0  0  0  0  0
   -6.9796    1.0252    1.8972 H   0  0  0  0  0  0  0  0  0  0  0  0
  1  2  1  0
  2  3  1  0
  3  4  1  0
  4  5  1  0
  5  6  1  0
  6  7  1  0
  7  8  2  3
  7  9  1  0
  9 10  1  0
 10 11  2  0
 11 12  1  0
 12 13  2  0
 13 14  1  0
 14 15  1  0
 15 16  2  0
 16 17  1  0
 17 18  2  0
 18 19  1  0
 19 20  1  0
 18 21  1  0
 21 22  2  0
 16 12  1  0
 22 15  1  0
  1 23  1  0
  1 24  1  0
  1 25  1  0
  2 26  1  0
  2 27  1  0
  3 28  1  0
  3 29  1  0
  4 30  1  0
  4 31  1  0
  5 32  1  0
  5 33  1  0
  6 34  1  0
  8 35  1  0
  9 36  1  0
 11 37  1  0
 13 38  1  0
 14 39  1  0
 17 40  1  0
 20 41  1  0
 20 42  1  0
 20 43  1  0
 21 44  1  0
 22 45  1  0
M  END
$$$$
