
     RDKit          3D

 34 36  0  0  0  0  0  0  0  0999 V2000
   -2.4898    2.1195   -0.7562 C   0  0  0  0  0  0  0  0  0  0  0  0
   -3.1888    0.8998   -0.2148 C   0  0  0  0  0  0  0  0  0  0  0  0
   -4.5884    0.8248   -0.3257 C   0  0  0  0  0  0  0  0  0  0  0  0
   -5.2862   -0.2655    0.1961 C   0  0  0  0  0  0  0  0  0  0  0  0
   -4.5970   -1.2970    0.8313 C   0  0  0  0  0  0  0  0  0  0  0  0
   -3.2058   -1.2502    0.9332 C   0  0  0  0  0  0  0  0  0  0  0  0
   -2.4832   -0.1691    0.3976 C   0  0  0  0  0  0  0  0  0  0  0  0
   -1.0064   -0.1870    0.5005 C   0  0  0  0  0  0  0  0  0  0  0  0
   -0.2902   -0.5445    1.6426 C   0  0  0  0  0  0  0  0  0  0  0  0
    1.0340   -0.4616    1.2730 C   0  0  0  0  0  0  0  0  0  0  0  0
    1.0730   -0.0790   -0.0400 C   0  0  0  0  0  0  0  0  0  0  0  0
   -0.1672    0.0871   -0.5281 N   0  0  0  0  0  0  0  0  0  0  0  0
    2.2775    0.0781   -0.7229 C   0  0  0  0  0  0  0  0  0  0  0  0
    3.4827   -0.1621   -0.0199 C   0  0  0  0  0  0  0  0  0  0  0  0
    3.4272   -0.5582    1.3433 C   0  0  0  0  0  0  0  0  0  0  0  0
    2.1931   -0.7114    2.0001 C   0  0  0  0  0  0  0  0  0  0  0  0
    4.7945   -0.0126   -0.6981 C   0  0  0  0  0  0  0  0  0  0  0  0
    5.8724   -0.8983   -0.3839 N   0  0  0  0  0  0  0  0  0  0  0  0
    4.9885    0.9223   -1.5760 N   0  0  0  0  0  0  0  0  0  0  0  0
   -2.1679    1.9329   -1.8014 H   0  0  0  0  0  0  0  0  0  0  0  0
   -3.1688    2.9988   -0.7509 H   0  0  0  0  0  0  0  0  0  0  0  0
   -1.6102    2.3842   -0.1331 H   0  0  0  0  0  0  0  0  0  0  0  0
   -5.1443    1.6201   -0.8074 H   0  0  0  0  0  0  0  0  0  0  0  0
   -6.3645   -0.3079    0.1118 H   0  0  0  0  0  0  0  0  0  0  0  0
   -5.1409   -2.1396    1.2384 H   0  0  0  0  0  0  0  0  0  0  0  0
   -2.6892   -2.0726    1.4132 H   0  0  0  0  0  0  0  0  0  0  0  0
   -0.6859   -0.8274    2.6096 H   0  0  0  0  0  0  0  0  0  0  0  0
   -0.4226    0.3352   -1.5094 H   0  0  0  0  0  0  0  0  0  0  0  0
    2.2744    0.3575   -1.7688 H   0  0  0  0  0  0  0  0  0  0  0  0
    4.3373   -0.7323    1.9029 H   0  0  0  0  0  0  0  0  0  0  0  0
    2.1484   -1.0130    3.0387 H   0  0  0  0  0  0  0  0  0  0  0  0
    5.7330   -1.7185    0.2466 H   0  0  0  0  0  0  0  0  0  0  0  0
    6.8083   -0.7679   -0.8287 H   0  0  0  0  0  0  0  0  0  0  0  0
    4.2532    1.6157   -1.8386 H   0  0  0  0  0  0  0  0  0  0  0  0
  1  2  1  0
  2  3  2  0
  3  4  1  0
  4  5  2  0
  5  6  1  0
  6  7  2  0
  7  8  1  0
  8  9  2  0
  9 10  1  0
 10 11  2  0
 11 12  1  0
 11 13  1  0
 13 14  2  0
 14 15  1  0
 15 16  2  0
 14 17  1  0
 17 18  1  0
 17 19  2  3
  7  2  1  0
 12  8  1  0
 16 10  1  0
  1 20  1  0
  1 21  1  0
  1 22  1  0
  3 23  1  0
  4 24  1  0
  5 25  1  0
  6 26  1  0
  9 27  1  0
 12 28  1  0
 13 29  1  0
 15 30  1  0
 16 31  1  0
 18 32  1  0
 18 33  1  0
 19 34  1  0
M  END
$$$$
