
     RDKit          3D

 79 81  0  0  0  0  0  0  0  0999 V2000
    0.8417   -0.3881    0.8663 C   0  0  1  0  0  0  0  0  0  0  0  0
    0.4255   -0.7953   -0.5706 C   0  0  0  0  0  0  0  0  0  0  0  0
   -1.0273   -0.3423   -0.7661 C   0  0  0  0  0  0  0  0  0  0  0  0
   -1.3321    0.4958    0.4714 C   0  0  1  0  0  0  0  0  0  0  0  0
   -2.7661    0.7169    0.9050 C   0  0  0  0  0  0  0  0  0  0  0  0
   -2.9525    1.3055    2.2947 C   0  0  0  0  0  0  0  0  0  0  0  0
   -1.6281    1.8314    2.8932 C   0  0  0  0  0  0  0  0  0  0  0  0
   -0.4406    0.8339    2.8135 C   0  0  0  0  0  0  0  0  0  0  0  0
   -0.5111   -0.1518    1.6018 C   0  0  2  0  0  0  0  0  0  0  0  0
   -1.1402   -1.5051    2.0658 C   0  0  0  0  0  0  0  0  0  0  0  0
   -3.8049    0.4919    0.0773 C   0  0  0  0  0  0  0  0  0  0  0  0
   -5.2192    0.6645    0.4832 C   0  0  0  0  0  0  0  0  0  0  0  0
   -6.2498    0.7003   -0.3862 C   0  0  0  0  0  0  0  0  0  0  0  0
   -7.6678    0.6595    0.1275 C   0  0  0  0  0  0  0  0  0  0  0  0
   -8.4923   -0.3831   -0.6509 C   0  0  1  0  0  0  0  0  0  0  0  0
   -9.8257   -0.3874   -0.2065 O   0  0  0  0  0  0  0  0  0  0  0  0
   -8.4307   -0.1279   -2.1727 C   0  0  0  0  0  0  0  0  0  0  0  0
   -6.9862   -0.1022   -2.7172 C   0  0  2  0  0  0  0  0  0  0  0  0
   -6.4615   -1.4028   -2.8238 O   0  0  0  0  0  0  0  0  0  0  0  0
   -6.0888    0.7712   -1.8631 C   0  0  0  0  0  0  0  0  0  0  0  0
   -5.2407    1.6344   -2.4356 C   0  0  0  0  0  0  0  0  0  0  0  0
    1.8467   -1.4017    1.5021 C   0  0  2  0  0  0  0  0  0  0  0  0
    2.3275   -0.9678    2.8958 C   0  0  0  0  0  0  0  0  0  0  0  0
    3.0416   -1.6275    0.5998 C   0  0  0  0  0  0  0  0  0  0  0  0
    3.8921   -0.6501    0.2670 C   0  0  0  0  0  0  0  0  0  0  0  0
    5.0352   -0.9122   -0.6212 C   0  0  0  0  0  0  0  0  0  0  0  0
    5.8885    0.0626   -0.9529 C   0  0  0  0  0  0  0  0  0  0  0  0
    7.0666   -0.1874   -1.8855 C   0  0  0  0  0  0  0  0  0  0  0  0
    6.5793   -0.7776   -3.0712 O   0  0  0  0  0  0  0  0  0  0  0  0
    8.0937   -1.1928   -1.2726 C   0  0  0  0  0  0  0  0  0  0  0  0
    8.2639   -1.1447    0.2540 C   0  0  0  0  0  0  0  0  0  0  0  0
    7.7496    1.1571   -2.2866 C   0  0  0  0  0  0  0  0  0  0  0  0
    8.4872    1.8937   -1.1660 C   0  0  0  0  0  0  0  0  0  0  0  0
    1.3583    0.5960    0.7842 H   0  0  0  0  0  0  0  0  0  0  0  0
    1.0896   -0.3054   -1.3163 H   0  0  0  0  0  0  0  0  0  0  0  0
    0.4884   -1.8968   -0.7136 H   0  0  0  0  0  0  0  0  0  0  0  0
   -1.6947   -1.2300   -0.8219 H   0  0  0  0  0  0  0  0  0  0  0  0
   -1.1402    0.2592   -1.6945 H   0  0  0  0  0  0  0  0  0  0  0  0
   -0.9165    1.5103    0.2603 H   0  0  0  0  0  0  0  0  0  0  0  0
   -3.6586    2.1628    2.2449 H   0  0  0  0  0  0  0  0  0  0  0  0
   -3.3890    0.5403    2.9708 H   0  0  0  0  0  0  0  0  0  0  0  0
   -1.7959    2.1223    3.9527 H   0  0  0  0  0  0  0  0  0  0  0  0
   -1.3473    2.7595    2.3476 H   0  0  0  0  0  0  0  0  0  0  0  0
   -0.4020    0.2703    3.7705 H   0  0  0  0  0  0  0  0  0  0  0  0
    0.4963    1.4301    2.7724 H   0  0  0  0  0  0  0  0  0  0  0  0
   -1.1636   -2.2534    1.2471 H   0  0  0  0  0  0  0  0  0  0  0  0
   -0.5629   -1.9445    2.9046 H   0  0  0  0  0  0  0  0  0  0  0  0
   -2.1771   -1.3769    2.4325 H   0  0  0  0  0  0  0  0  0  0  0  0
   -3.6098    0.1386   -0.9252 H   0  0  0  0  0  0  0  0  0  0  0  0
   -5.4422    0.6782    1.5429 H   0  0  0  0  0  0  0  0  0  0  0  0
   -7.7040    0.4035    1.2095 H   0  0  0  0  0  0  0  0  0  0  0  0
   -8.1166    1.6689    0.0029 H   0  0  0  0  0  0  0  0  0  0  0  0
   -8.0717   -1.3899   -0.4398 H   0  0  0  0  0  0  0  0  0  0  0  0
  -10.2076    0.5112   -0.3882 H   0  0  0  0  0  0  0  0  0  0  0  0
   -9.0104   -0.9143   -2.7032 H   0  0  0  0  0  0  0  0  0  0  0  0
   -8.9118    0.8499   -2.3977 H   0  0  0  0  0  0  0  0  0  0  0  0
   -7.0421    0.3133   -3.7478 H   0  0  0  0  0  0  0  0  0  0  0  0
   -6.3064   -1.7506   -1.9074 H   0  0  0  0  0  0  0  0  0  0  0  0
   -4.6435    2.3119   -1.8386 H   0  0  0  0  0  0  0  0  0  0  0  0
   -5.1454    1.6919   -3.5125 H   0  0  0  0  0  0  0  0  0  0  0  0
    1.3489   -2.3887    1.6113 H   0  0  0  0  0  0  0  0  0  0  0  0
    1.5105   -1.0522    3.6379 H   0  0  0  0  0  0  0  0  0  0  0  0
    2.6974    0.0793    2.8818 H   0  0  0  0  0  0  0  0  0  0  0  0
    3.1497   -1.6304    3.2422 H   0  0  0  0  0  0  0  0  0  0  0  0
    3.1987   -2.6271    0.2101 H   0  0  0  0  0  0  0  0  0  0  0  0
    3.7427    0.3509    0.6539 H   0  0  0  0  0  0  0  0  0  0  0  0
    5.1895   -1.9137   -1.0071 H   0  0  0  0  0  0  0  0  0  0  0  0
    5.7125    1.0641   -0.5777 H   0  0  0  0  0  0  0  0  0  0  0  0
    5.9001   -0.1697   -3.4681 H   0  0  0  0  0  0  0  0  0  0  0  0
    7.7809   -2.2303   -1.5253 H   0  0  0  0  0  0  0  0  0  0  0  0
    9.0882   -1.0501   -1.7492 H   0  0  0  0  0  0  0  0  0  0  0  0
    8.4349   -0.1178    0.6260 H   0  0  0  0  0  0  0  0  0  0  0  0
    9.1348   -1.7690    0.5449 H   0  0  0  0  0  0  0  0  0  0  0  0
    7.3678   -1.5612    0.7592 H   0  0  0  0  0  0  0  0  0  0  0  0
    8.4761    0.9648   -3.1066 H   0  0  0  0  0  0  0  0  0  0  0  0
    6.9797    1.8456   -2.7004 H   0  0  0  0  0  0  0  0  0  0  0  0
    8.7979    2.8952   -1.5315 H   0  0  0  0  0  0  0  0  0  0  0  0
    9.4071    1.3441   -0.8785 H   0  0  0  0  0  0  0  0  0  0  0  0
    7.8357    2.0390   -0.2802 H   0  0  0  0  0  0  0  0  0  0  0  0
  1  2  1  0
  2  3  1  0
  3  4  1  0
  4  5  1  0
  5  6  1  0
  6  7  1  0
  7  8  1  0
  8  9  1  0
  9 10  1  1
  5 11  2  0
 11 12  1  0
 12 13  2  0
 13 14  1  0
 14 15  1  0
 15 16  1  0
 15 17  1  0
 17 18  1  0
 18 19  1  0
 18 20  1  0
 20 21  2  3
  1 22  1  0
 22 23  1  0
 22 24  1  0
 24 25  2  0
 25 26  1  0
 26 27  2  0
 27 28  1  0
 28 29  1  0
 28 30  1  0
 30 31  1  0
 28 32  1  0
 32 33  1  0
  9  1  1  0
 20 13  1  0
  9  4  1  0
  1 34  1  6
  2 35  1  0
  2 36  1  0
  3 37  1  0
  3 38  1  0
  4 39  1  6
  6 40  1  0
  6 41  1  0
  7 42  1  0
  7 43  1  0
  8 44  1  0
  8 45  1  0
 10 46  1  0
 10 47  1  0
 10 48  1  0
 11 49  1  0
 12 50  1  0
 14 51  1  0
 14 52  1  0
 15 53  1  6
 16 54  1  0
 17 55  1  0
 17 56  1  0
 18 57  1  6
 19 58  1  0
 21 59  1  0
 21 60  1  0
 22 61  1  1
 23 62  1  0
 23 63  1  0
 23 64  1  0
 24 65  1  0
 25 66  1  0
 26 67  1  0
 27 68  1  0
 29 69  1  0
 30 70  1  0
 30 71  1  0
 31 72  1  0
 31 73  1  0
 31 74  1  0
 32 75  1  0
 32 76  1  0
 33 77  1  0
 33 78  1  0
 33 79  1  0
M  END
$$$$
