
     RDKit          3D

 46 49  0  0  0  0  0  0  0  0999 V2000
    7.1028   -0.5855   -0.9764 N   0  0  0  0  0  0  0  0  0  0  0  0
    6.6161   -0.7890    0.3557 C   0  0  0  0  0  0  0  0  0  0  0  0
    7.4535   -1.0916    1.3033 N   0  0  0  0  0  4  0  0  0  0  0  0
    5.1671   -0.6435    0.6429 C   0  0  0  0  0  0  0  0  0  0  0  0
    4.5224   -1.5045    1.5726 C   0  0  0  0  0  0  0  0  0  0  0  0
    3.1489   -1.3717    1.8448 C   0  0  0  0  0  0  0  0  0  0  0  0
    2.4440   -0.3771    1.1730 C   0  0  0  0  0  0  0  0  0  0  0  0
    1.1396   -0.0802    1.2927 N   0  0  0  0  0  0  0  0  0  0  0  0
    0.9202    0.9616    0.4523 C   0  0  0  0  0  0  0  0  0  0  0  0
    2.1007    1.3287   -0.1959 C   0  0  0  0  0  0  0  0  0  0  0  0
    3.0555    0.4559    0.2767 C   0  0  0  0  0  0  0  0  0  0  0  0
    4.4128    0.3546   -0.0171 C   0  0  0  0  0  0  0  0  0  0  0  0
   -0.3888    1.6365    0.2839 C   0  0  0  0  0  0  0  0  0  0  0  0
   -0.4248    3.0283    0.1039 C   0  0  0  0  0  0  0  0  0  0  0  0
   -1.6413    3.6914   -0.0376 C   0  0  0  0  0  0  0  0  0  0  0  0
   -2.8359    2.9751   -0.0095 C   0  0  0  0  0  0  0  0  0  0  0  0
   -2.8375    1.5844    0.1474 C   0  0  0  0  0  0  0  0  0  0  0  0
   -4.0972    0.9545    0.1491 O   0  0  0  0  0  0  0  0  0  0  0  0
   -4.3716   -0.4486    0.1691 C   0  0  0  0  0  0  0  0  0  0  0  0
   -3.9996   -1.1125   -1.1650 C   0  0  0  0  0  0  0  0  0  0  0  0
   -5.2896   -1.6529   -1.7645 C   0  0  0  0  0  0  0  0  0  0  0  0
   -6.2534   -1.7857   -0.6031 C   0  0  0  0  0  0  0  0  0  0  0  0
   -5.8731   -0.6704    0.3523 C   0  0  0  0  0  0  0  0  0  0  0  0
   -1.5992    0.9068    0.2936 C   0  0  0  0  0  0  0  0  0  0  0  0
   -1.5543   -0.4755    0.4251 O   0  0  0  0  0  1  0  0  0  0  0  0
    6.4455   -0.4283   -1.7721 H   0  0  0  0  0  0  0  0  0  0  0  0
    8.1244   -0.6398   -1.1861 H   0  0  0  0  0  0  0  0  0  0  0  0
    7.1441   -1.2110    2.2935 H   0  0  0  0  0  0  0  0  0  0  0  0
    8.4728   -1.1969    1.1010 H   0  0  0  0  0  0  0  0  0  0  0  0
    5.0759   -2.2894    2.0719 H   0  0  0  0  0  0  0  0  0  0  0  0
    2.6554   -2.0271    2.5508 H   0  0  0  0  0  0  0  0  0  0  0  0
    0.4555   -0.5373    1.9358 H   0  0  0  0  0  0  0  0  0  0  0  0
    2.2404    2.1220   -0.9188 H   0  0  0  0  0  0  0  0  0  0  0  0
    4.8700    1.0410   -0.7188 H   0  0  0  0  0  0  0  0  0  0  0  0
    0.4899    3.6081    0.0945 H   0  0  0  0  0  0  0  0  0  0  0  0
   -1.6591    4.7662   -0.1651 H   0  0  0  0  0  0  0  0  0  0  0  0
   -3.7737    3.5052   -0.1194 H   0  0  0  0  0  0  0  0  0  0  0  0
   -3.8466   -0.9353    1.0196 H   0  0  0  0  0  0  0  0  0  0  0  0
   -3.5160   -0.3978   -1.8663 H   0  0  0  0  0  0  0  0  0  0  0  0
   -3.2997   -1.9565   -0.9793 H   0  0  0  0  0  0  0  0  0  0  0  0
   -5.1277   -2.6303   -2.2688 H   0  0  0  0  0  0  0  0  0  0  0  0
   -5.6943   -0.9232   -2.5006 H   0  0  0  0  0  0  0  0  0  0  0  0
   -7.3094   -1.6941   -0.9380 H   0  0  0  0  0  0  0  0  0  0  0  0
   -6.1068   -2.7705   -0.1063 H   0  0  0  0  0  0  0  0  0  0  0  0
   -6.4381    0.2490    0.0790 H   0  0  0  0  0  0  0  0  0  0  0  0
   -6.1196   -0.9431    1.4017 H   0  0  0  0  0  0  0  0  0  0  0  0
  1  2  1  0
  2  3  2  3
  2  4  1  0
  4  5  2  0
  5  6  1  0
  6  7  2  0
  7  8  1  0
  8  9  1  0
  9 10  2  0
 10 11  1  0
 11 12  2  0
  9 13  1  0
 13 14  2  0
 14 15  1  0
 15 16  2  0
 16 17  1  0
 17 18  1  0
 18 19  1  0
 19 20  1  0
 20 21  1  0
 21 22  1  0
 22 23  1  0
 17 24  2  0
 24 25  1  0
 12  4  1  0
 24 13  1  0
 11  7  1  0
 23 19  1  0
  1 26  1  0
  1 27  1  0
  3 28  1  0
  3 29  1  0
  5 30  1  0
  6 31  1  0
  8 32  1  0
 10 33  1  0
 12 34  1  0
 14 35  1  0
 15 36  1  0
 16 37  1  0
 19 38  1  0
 20 39  1  0
 20 40  1  0
 21 41  1  0
 21 42  1  0
 22 43  1  0
 22 44  1  0
 23 45  1  0
 23 46  1  0
M  CHG  2   3   1  25  -1
M  END
$$$$
