
     RDKit          3D

 83 84  0  0  0  0  0  0  0  0999 V2000
    0.1127   -0.2625    2.7881 C   0  0  0  0  0  0  0  0  0  0  0  0
   -0.4562    1.1497    3.0485 C   0  0  0  0  0  0  0  0  0  0  0  0
    0.1539    1.6924    4.3453 C   0  0  0  0  0  0  0  0  0  0  0  0
   -2.2795    1.0517    3.3008 S   0  0  0  0  0  0  0  0  0  0  0  0
   -2.7324    0.3836    1.6879 C   0  0  0  0  0  0  0  0  0  0  0  0
   -3.0299    1.2434    0.6380 C   0  0  0  0  0  0  0  0  0  0  0  0
   -3.3658    0.7568   -0.6430 C   0  0  0  0  0  0  0  0  0  0  0  0
   -3.5893   -0.6503   -0.7682 C   0  0  0  0  0  0  0  0  0  0  0  0
   -4.2502   -1.1728   -1.8771 O   0  0  0  0  0  0  0  0  0  0  0  0
   -3.1970   -1.5493    0.2672 C   0  0  0  0  0  0  0  0  0  0  0  0
   -2.8106   -0.9918    1.5051 C   0  0  0  0  0  0  0  0  0  0  0  0
   -3.2595   -3.0909    0.0717 C   0  0  0  0  0  0  0  0  0  0  0  0
   -2.6301   -3.8752    1.2537 C   0  0  0  0  0  0  0  0  0  0  0  0
   -2.4685   -3.5042   -1.1934 C   0  0  0  0  0  0  0  0  0  0  0  0
   -4.7285   -3.5523   -0.0508 C   0  0  0  0  0  0  0  0  0  0  0  0
   -3.5027    1.7584   -1.8278 C   0  0  0  0  0  0  0  0  0  0  0  0
   -4.9542    2.2698   -1.8987 C   0  0  0  0  0  0  0  0  0  0  0  0
   -2.5689    2.9892   -1.6383 C   0  0  0  0  0  0  0  0  0  0  0  0
   -3.0971    1.1212   -3.1886 C   0  0  0  0  0  0  0  0  0  0  0  0
   -0.1147    2.3871    1.7115 S   0  0  0  0  0  0  0  0  0  0  0  0
    1.2860    1.6031    0.9045 C   0  0  0  0  0  0  0  0  0  0  0  0
    2.5708    1.8009    1.3869 C   0  0  0  0  0  0  0  0  0  0  0  0
    3.6854    1.1423    0.8180 C   0  0  0  0  0  0  0  0  0  0  0  0
    3.4317    0.2409   -0.2737 C   0  0  0  0  0  0  0  0  0  0  0  0
    4.4417   -0.5574   -0.8153 O   0  0  0  0  0  0  0  0  0  0  0  0
    2.1230    0.1121   -0.8332 C   0  0  0  0  0  0  0  0  0  0  0  0
    1.0675    0.8047   -0.2064 C   0  0  0  0  0  0  0  0  0  0  0  0
    1.8438   -0.8185   -2.0504 C   0  0  0  0  0  0  0  0  0  0  0  0
    2.0441   -2.2923   -1.6363 C   0  0  0  0  0  0  0  0  0  0  0  0
    0.3946   -0.6899   -2.5896 C   0  0  0  0  0  0  0  0  0  0  0  0
    2.7796   -0.4675   -3.2348 C   0  0  0  0  0  0  0  0  0  0  0  0
    5.1187    1.4184    1.3680 C   0  0  0  0  0  0  0  0  0  0  0  0
    5.7560    0.1124    1.9325 C   0  0  0  0  0  0  0  0  0  0  0  0
    5.1401    2.4653    2.5176 C   0  0  0  0  0  0  0  0  0  0  0  0
    5.9921    2.0235    0.2401 C   0  0  0  0  0  0  0  0  0  0  0  0
   -0.1669   -0.6337    1.7829 H   0  0  0  0  0  0  0  0  0  0  0  0
   -0.2753   -0.9780    3.5441 H   0  0  0  0  0  0  0  0  0  0  0  0
    1.2208   -0.2692    2.8615 H   0  0  0  0  0  0  0  0  0  0  0  0
   -0.2653    2.6941    4.5810 H   0  0  0  0  0  0  0  0  0  0  0  0
   -0.0663    1.0121    5.1963 H   0  0  0  0  0  0  0  0  0  0  0  0
    1.2563    1.7899    4.2482 H   0  0  0  0  0  0  0  0  0  0  0  0
   -2.9807    2.3002    0.8437 H   0  0  0  0  0  0  0  0  0  0  0  0
   -4.9998   -0.6842   -2.3432 H   0  0  0  0  0  0  0  0  0  0  0  0
   -2.5695   -1.6061    2.3578 H   0  0  0  0  0  0  0  0  0  0  0  0
   -1.5802   -3.5526    1.4278 H   0  0  0  0  0  0  0  0  0  0  0  0
   -3.2198   -3.7397    2.1859 H   0  0  0  0  0  0  0  0  0  0  0  0
   -2.6146   -4.9672    1.0444 H   0  0  0  0  0  0  0  0  0  0  0  0
   -2.9188   -3.1194   -2.1278 H   0  0  0  0  0  0  0  0  0  0  0  0
   -2.4370   -4.6108   -1.2952 H   0  0  0  0  0  0  0  0  0  0  0  0
   -1.4224   -3.1350   -1.1301 H   0  0  0  0  0  0  0  0  0  0  0  0
   -5.2123   -3.1791   -0.9741 H   0  0  0  0  0  0  0  0  0  0  0  0
   -5.3179   -3.1954    0.8213 H   0  0  0  0  0  0  0  0  0  0  0  0
   -4.7903   -4.6619   -0.0816 H   0  0  0  0  0  0  0  0  0  0  0  0
   -5.2313    2.7830   -0.9525 H   0  0  0  0  0  0  0  0  0  0  0  0
   -5.0732    2.9915   -2.7358 H   0  0  0  0  0  0  0  0  0  0  0  0
   -5.6717    1.4400   -2.0554 H   0  0  0  0  0  0  0  0  0  0  0  0
   -2.5496    3.6285   -2.5474 H   0  0  0  0  0  0  0  0  0  0  0  0
   -1.5287    2.6604   -1.4249 H   0  0  0  0  0  0  0  0  0  0  0  0
   -2.9163    3.6592   -0.8250 H   0  0  0  0  0  0  0  0  0  0  0  0
   -2.7932    1.8873   -3.9338 H   0  0  0  0  0  0  0  0  0  0  0  0
   -3.9301    0.5848   -3.6799 H   0  0  0  0  0  0  0  0  0  0  0  0
   -2.2427    0.4268   -3.0584 H   0  0  0  0  0  0  0  0  0  0  0  0
    2.6613    2.4658    2.2300 H   0  0  0  0  0  0  0  0  0  0  0  0
    5.3672   -0.6776   -0.4433 H   0  0  0  0  0  0  0  0  0  0  0  0
    0.0456    0.7206   -0.5401 H   0  0  0  0  0  0  0  0  0  0  0  0
    1.7868   -2.9745   -2.4756 H   0  0  0  0  0  0  0  0  0  0  0  0
    3.0921   -2.5076   -1.3490 H   0  0  0  0  0  0  0  0  0  0  0  0
    1.3902   -2.5411   -0.7723 H   0  0  0  0  0  0  0  0  0  0  0  0
    0.2425   -1.3261   -3.4886 H   0  0  0  0  0  0  0  0  0  0  0  0
   -0.3496   -1.0276   -1.8370 H   0  0  0  0  0  0  0  0  0  0  0  0
    0.1803    0.3613   -2.8808 H   0  0  0  0  0  0  0  0  0  0  0  0
    2.7625    0.6269   -3.4281 H   0  0  0  0  0  0  0  0  0  0  0  0
    3.8267   -0.7822   -3.0664 H   0  0  0  0  0  0  0  0  0  0  0  0
    2.4587   -0.9864   -4.1642 H   0  0  0  0  0  0  0  0  0  0  0  0
    6.6199   -0.2267    1.3223 H   0  0  0  0  0  0  0  0  0  0  0  0
    5.0143   -0.7136    1.9867 H   0  0  0  0  0  0  0  0  0  0  0  0
    6.1542    0.2390    2.9629 H   0  0  0  0  0  0  0  0  0  0  0  0
    6.1819    2.6544    2.8585 H   0  0  0  0  0  0  0  0  0  0  0  0
    4.5690    2.1008    3.3993 H   0  0  0  0  0  0  0  0  0  0  0  0
    4.7252    3.4412    2.1834 H   0  0  0  0  0  0  0  0  0  0  0  0
    7.0205    2.2298    0.6088 H   0  0  0  0  0  0  0  0  0  0  0  0
    5.5523    2.9814   -0.1136 H   0  0  0  0  0  0  0  0  0  0  0  0
    6.0882    1.3646   -0.6417 H   0  0  0  0  0  0  0  0  0  0  0  0
  1  2  1  0
  2  3  1  0
  2  4  1  0
  4  5  1  0
  5  6  2  0
  6  7  1  0
  7  8  2  0
  8  9  1  0
  8 10  1  0
 10 11  2  0
 10 12  1  0
 12 13  1  0
 12 14  1  0
 12 15  1  0
  7 16  1  0
 16 17  1  0
 16 18  1  0
 16 19  1  0
  2 20  1  0
 20 21  1  0
 21 22  2  0
 22 23  1  0
 23 24  2  0
 24 25  1  0
 24 26  1  0
 26 27  2  0
 26 28  1  0
 28 29  1  0
 28 30  1  0
 28 31  1  0
 23 32  1  0
 32 33  1  0
 32 34  1  0
 32 35  1  0
 11  5  1  0
 27 21  1  0
  1 36  1  0
  1 37  1  0
  1 38  1  0
  3 39  1  0
  3 40  1  0
  3 41  1  0
  6 42  1  0
  9 43  1  0
 11 44  1  0
 13 45  1  0
 13 46  1  0
 13 47  1  0
 14 48  1  0
 14 49  1  0
 14 50  1  0
 15 51  1  0
 15 52  1  0
 15 53  1  0
 17 54  1  0
 17 55  1  0
 17 56  1  0
 18 57  1  0
 18 58  1  0
 18 59  1  0
 19 60  1  0
 19 61  1  0
 19 62  1  0
 22 63  1  0
 25 64  1  0
 27 65  1  0
 29 66  1  0
 29 67  1  0
 29 68  1  0
 30 69  1  0
 30 70  1  0
 30 71  1  0
 31 72  1  0
 31 73  1  0
 31 74  1  0
 33 75  1  0
 33 76  1  0
 33 77  1  0
 34 78  1  0
 34 79  1  0
 34 80  1  0
 35 81  1  0
 35 82  1  0
 35 83  1  0
M  END
$$$$
