
     RDKit          3D

 33 36  0  0  0  0  0  0  0  0999 V2000
   -0.8429    0.9472    2.6002 O   0  0  0  0  0  0  0  0  0  0  0  0
   -0.3930    0.5159    1.5090 C   0  0  0  0  0  0  0  0  0  0  0  0
    0.9920    0.5387    1.3360 C   0  0  0  0  0  0  0  0  0  0  0  0
    1.5558    0.0713    0.1410 C   0  0  0  0  0  0  0  0  0  0  0  0
    0.7472   -0.3867   -0.8072 O   0  0  0  0  0  0  0  0  0  0  0  0
   -0.5757   -0.4327   -0.6993 C   0  0  0  0  0  0  0  0  0  0  0  0
   -1.2374    0.0196    0.4761 C   0  0  0  0  0  0  0  0  0  0  0  0
   -2.6762   -0.0584    0.5273 C   0  0  0  0  0  0  0  0  0  0  0  0
   -3.4614    0.3573    1.6365 C   0  0  0  0  0  0  0  0  0  0  0  0
   -4.8544    0.2530    1.6182 C   0  0  0  0  0  0  0  0  0  0  0  0
   -5.5095   -0.2635    0.5070 C   0  0  0  0  0  0  0  0  0  0  0  0
   -4.7767   -0.6811   -0.5980 C   0  0  0  0  0  0  0  0  0  0  0  0
   -3.3753   -0.5855   -0.6019 C   0  0  0  0  0  0  0  0  0  0  0  0
   -2.6772   -1.0165   -1.7328 C   0  0  0  0  0  0  0  0  0  0  0  0
   -1.2951   -0.9396   -1.7776 C   0  0  0  0  0  0  0  0  0  0  0  0
    3.0286    0.0625   -0.1207 C   0  0  0  0  0  0  0  0  0  0  0  0
    3.9785    0.5264    0.8181 C   0  0  0  0  0  0  0  0  0  0  0  0
    5.3454    0.4963    0.5233 C   0  0  0  0  0  0  0  0  0  0  0  0
    5.7898    0.0065   -0.7045 C   0  0  0  0  0  0  0  0  0  0  0  0
    4.8683   -0.4554   -1.6433 C   0  0  0  0  0  0  0  0  0  0  0  0
    3.5005   -0.4288   -1.3567 C   0  0  0  0  0  0  0  0  0  0  0  0
    1.5978    0.9224    2.1423 H   0  0  0  0  0  0  0  0  0  0  0  0
   -3.0541    0.7681    2.5388 H   0  0  0  0  0  0  0  0  0  0  0  0
   -5.4306    0.5766    2.4759 H   0  0  0  0  0  0  0  0  0  0  0  0
   -6.5892   -0.3405    0.5021 H   0  0  0  0  0  0  0  0  0  0  0  0
   -5.3073   -1.0809   -1.4545 H   0  0  0  0  0  0  0  0  0  0  0  0
   -3.2051   -1.4168   -2.5908 H   0  0  0  0  0  0  0  0  0  0  0  0
   -0.7730   -1.2791   -2.6640 H   0  0  0  0  0  0  0  0  0  0  0  0
    3.6923    0.9152    1.7818 H   0  0  0  0  0  0  0  0  0  0  0  0
    6.0625    0.8545    1.2509 H   0  0  0  0  0  0  0  0  0  0  0  0
    6.8486   -0.0149   -0.9283 H   0  0  0  0  0  0  0  0  0  0  0  0
    5.2134   -0.8355   -2.5962 H   0  0  0  0  0  0  0  0  0  0  0  0
    2.8133   -0.7953   -2.1088 H   0  0  0  0  0  0  0  0  0  0  0  0
  1  2  2  0
  2  3  1  0
  3  4  2  0
  4  5  1  0
  5  6  1  0
  6  7  2  0
  7  8  1  0
  8  9  2  0
  9 10  1  0
 10 11  2  0
 11 12  1  0
 12 13  2  0
 13 14  1  0
 14 15  2  0
  4 16  1  0
 16 17  2  0
 17 18  1  0
 18 19  2  0
 19 20  1  0
 20 21  2  0
  7  2  1  0
 13  8  1  0
 21 16  1  0
 15  6  1  0
  3 22  1  0
  9 23  1  0
 10 24  1  0
 11 25  1  0
 12 26  1  0
 14 27  1  0
 15 28  1  0
 17 29  1  0
 18 30  1  0
 19 31  1  0
 20 32  1  0
 21 33  1  0
M  END
$$$$
