
     RDKit          3D

 27 28  0  0  0  0  0  0  0  0999 V2000
    0.8745   -0.4324    0.2579 C   0  0  2  0  0  0  0  0  0  0  0  0
    0.8534   -1.6136   -0.7513 C   0  0  0  0  0  0  0  0  0  0  0  0
   -0.6115   -2.0647   -0.9078 C   0  0  0  0  0  0  0  0  0  0  0  0
   -1.3694   -1.1479   -0.0271 C   0  0  0  0  0  0  0  0  0  0  0  0
   -2.7505   -1.1478    0.1818 C   0  0  0  0  0  0  0  0  0  0  0  0
   -3.3005   -0.2077    1.0662 C   0  0  0  0  0  0  0  0  0  0  0  0
   -2.4659    0.7143    1.7308 C   0  0  0  0  0  0  0  0  0  0  0  0
   -3.0029    1.6488    2.6129 O   0  0  0  0  0  0  0  0  0  0  0  0
   -1.0803    0.6926    1.5045 C   0  0  0  0  0  0  0  0  0  0  0  0
   -0.5550   -0.2481    0.6131 C   0  0  0  0  0  0  0  0  0  0  0  0
    1.4101    0.8103   -0.3243 N   0  0  0  0  0  0  0  0  0  0  0  0
    2.8729    0.7648   -0.4257 C   0  0  0  0  0  0  0  0  0  0  0  0
    3.3765    2.0651   -0.8778 C   0  0  0  0  0  0  0  0  0  0  0  0
    3.7906    3.1344   -1.2498 C   0  0  0  0  0  0  0  0  0  0  0  0
    1.4305   -0.7141    1.1808 H   0  0  0  0  0  0  0  0  0  0  0  0
    1.4692   -2.4529   -0.3607 H   0  0  0  0  0  0  0  0  0  0  0  0
    1.2606   -1.3224   -1.7438 H   0  0  0  0  0  0  0  0  0  0  0  0
   -0.7424   -3.1155   -0.5704 H   0  0  0  0  0  0  0  0  0  0  0  0
   -0.9523   -1.9533   -1.9598 H   0  0  0  0  0  0  0  0  0  0  0  0
   -3.3864   -1.8606   -0.3273 H   0  0  0  0  0  0  0  0  0  0  0  0
   -4.3693   -0.1967    1.2370 H   0  0  0  0  0  0  0  0  0  0  0  0
   -3.9983    1.6903    2.7981 H   0  0  0  0  0  0  0  0  0  0  0  0
   -0.4287    1.3932    2.0112 H   0  0  0  0  0  0  0  0  0  0  0  0
    1.0025    0.9559   -1.2793 H   0  0  0  0  0  0  0  0  0  0  0  0
    3.3235    0.5493    0.5671 H   0  0  0  0  0  0  0  0  0  0  0  0
    3.1953   -0.0144   -1.1495 H   0  0  0  0  0  0  0  0  0  0  0  0
    4.1540    4.0732   -1.5764 H   0  0  0  0  0  0  0  0  0  0  0  0
  1  2  1  0
  2  3  1  0
  3  4  1  0
  4  5  2  0
  5  6  1  0
  6  7  2  0
  7  8  1  0
  7  9  1  0
  9 10  2  0
  1 11  1  0
 11 12  1  0
 12 13  1  0
 13 14  3  0
 10  1  1  0
 10  4  1  0
  1 15  1  1
  2 16  1  0
  2 17  1  0
  3 18  1  0
  3 19  1  0
  5 20  1  0
  6 21  1  0
  8 22  1  0
  9 23  1  0
 11 24  1  0
 12 25  1  0
 12 26  1  0
 14 27  1  0
M  END
$$$$
