
     RDKit          3D

 70 73  0  0  0  0  0  0  0  0999 V2000
   -0.4994    0.4491   -1.3561 C   0  0  2  0  0  0  0  0  0  0  0  0
   -0.1721    1.0345   -2.7243 C   0  0  0  0  0  0  0  0  0  0  0  0
    1.3533    0.8574   -2.8623 C   0  0  0  0  0  0  0  0  0  0  0  0
    1.8321    0.0303   -1.6240 C   0  0  2  0  0  0  0  0  0  0  0  0
    2.2322    0.9388   -0.5840 O   0  0  0  0  0  0  0  0  0  0  0  0
    3.3722    1.7546   -0.6088 C   0  0  0  0  0  0  0  0  0  0  0  0
    4.1279    1.7867   -1.6176 O   0  0  0  0  0  0  0  0  0  0  0  0
    3.6987    2.5884    0.5913 C   0  0  0  0  0  0  0  0  0  0  0  0
    3.8807    1.7256    1.8472 C   0  0  0  0  0  0  0  0  0  0  0  0
    5.1053    0.8046    1.7455 C   0  0  0  0  0  0  0  0  0  0  0  0
    5.2814   -0.0178    3.0183 C   0  0  0  0  0  0  0  0  0  0  0  0
    2.9869   -0.9429   -1.8842 C   0  0  0  0  0  0  0  0  0  0  0  0
    3.3840   -1.6337   -0.9565 O   0  0  0  0  0  0  0  0  0  0  0  0
    3.6508   -1.0859   -3.2344 C   0  0  0  0  0  0  0  0  0  0  0  0
    4.8182   -1.8589   -3.1456 O   0  0  0  0  0  0  0  0  0  0  0  0
    0.5203   -0.6972   -1.1803 C   0  0  2  0  0  0  0  0  0  0  0  0
    0.2673   -1.9173   -2.1346 C   0  0  0  0  0  0  0  0  0  0  0  0
    0.4903   -1.1752    0.3037 C   0  0  0  0  0  0  0  0  0  0  0  0
   -0.9365   -1.5061    0.8335 C   0  0  2  0  0  0  0  0  0  0  0  0
   -1.3333   -2.7992    0.4466 O   0  0  0  0  0  0  0  0  0  0  0  0
   -1.9725   -0.3754    0.4971 C   0  0  1  0  0  0  0  0  0  0  0  0
   -1.9513    0.0268   -1.0172 C   0  0  1  0  0  0  0  0  0  0  0  0
   -3.0125    1.1151   -1.3576 C   0  0  0  0  0  0  0  0  0  0  0  0
   -3.6189    1.8188   -0.1383 C   0  0  0  0  0  0  0  0  0  0  0  0
   -4.1261    0.8358    0.8962 C   0  0  0  0  0  0  0  0  0  0  0  0
   -5.1061    1.2306    1.7280 C   0  0  0  0  0  0  0  0  0  0  0  0
   -5.5015    0.4289    2.8964 C   0  0  0  0  0  0  0  0  0  0  0  0
   -6.4888    0.7896    3.5901 O   0  0  0  0  0  0  0  0  0  0  0  0
   -4.7544   -0.8171    3.2667 C   0  0  0  0  0  0  0  0  0  0  0  0
   -3.3728   -0.8614    2.5962 C   0  0  0  0  0  0  0  0  0  0  0  0
   -3.4298   -0.5203    1.0759 C   0  0  2  0  0  0  0  0  0  0  0  0
   -4.2635   -1.6017    0.3398 C   0  0  0  0  0  0  0  0  0  0  0  0
   -0.2499    1.2642   -0.6338 H   0  0  0  0  0  0  0  0  0  0  0  0
   -0.4418    2.1114   -2.7811 H   0  0  0  0  0  0  0  0  0  0  0  0
   -0.7100    0.4788   -3.5236 H   0  0  0  0  0  0  0  0  0  0  0  0
    1.5502    0.3413   -3.8238 H   0  0  0  0  0  0  0  0  0  0  0  0
    1.8504    1.8495   -2.9076 H   0  0  0  0  0  0  0  0  0  0  0  0
    2.8617    3.2989    0.7607 H   0  0  0  0  0  0  0  0  0  0  0  0
    4.6183    3.1866    0.4083 H   0  0  0  0  0  0  0  0  0  0  0  0
    4.0078    2.4033    2.7196 H   0  0  0  0  0  0  0  0  0  0  0  0
    2.9643    1.1191    2.0210 H   0  0  0  0  0  0  0  0  0  0  0  0
    6.0201    1.4144    1.5804 H   0  0  0  0  0  0  0  0  0  0  0  0
    4.9873    0.1078    0.8876 H   0  0  0  0  0  0  0  0  0  0  0  0
    5.4303    0.6510    3.8927 H   0  0  0  0  0  0  0  0  0  0  0  0
    6.1718   -0.6735    2.9170 H   0  0  0  0  0  0  0  0  0  0  0  0
    4.3884   -0.6556    3.1913 H   0  0  0  0  0  0  0  0  0  0  0  0
    3.8948   -0.0838   -3.6524 H   0  0  0  0  0  0  0  0  0  0  0  0
    2.9484   -1.5929   -3.9279 H   0  0  0  0  0  0  0  0  0  0  0  0
    5.5126   -1.2780   -2.7373 H   0  0  0  0  0  0  0  0  0  0  0  0
    0.4417   -1.6595   -3.1984 H   0  0  0  0  0  0  0  0  0  0  0  0
   -0.7501   -2.3273   -2.0931 H   0  0  0  0  0  0  0  0  0  0  0  0
    0.9558   -2.7517   -1.8840 H   0  0  0  0  0  0  0  0  0  0  0  0
    0.9047   -0.3798    0.9598 H   0  0  0  0  0  0  0  0  0  0  0  0
    1.1473   -2.0613    0.4381 H   0  0  0  0  0  0  0  0  0  0  0  0
   -0.8278   -1.5382    1.9385 H   0  0  0  0  0  0  0  0  0  0  0  0
   -1.9097   -2.7367   -0.3515 H   0  0  0  0  0  0  0  0  0  0  0  0
   -1.5570    0.5020    1.0486 H   0  0  0  0  0  0  0  0  0  0  0  0
   -2.2157   -0.8461   -1.6401 H   0  0  0  0  0  0  0  0  0  0  0  0
   -3.8475    0.6371   -1.9164 H   0  0  0  0  0  0  0  0  0  0  0  0
   -2.6056    1.8898   -2.0374 H   0  0  0  0  0  0  0  0  0  0  0  0
   -4.4481    2.4699   -0.4942 H   0  0  0  0  0  0  0  0  0  0  0  0
   -2.8531    2.4739    0.3303 H   0  0  0  0  0  0  0  0  0  0  0  0
   -5.5833    2.1935    1.5864 H   0  0  0  0  0  0  0  0  0  0  0  0
   -5.3537   -1.7033    2.9687 H   0  0  0  0  0  0  0  0  0  0  0  0
   -4.6222   -0.8547    4.3696 H   0  0  0  0  0  0  0  0  0  0  0  0
   -2.9507   -1.8771    2.7540 H   0  0  0  0  0  0  0  0  0  0  0  0
   -2.7074   -0.1358    3.1157 H   0  0  0  0  0  0  0  0  0  0  0  0
   -3.9474   -2.6235    0.6329 H   0  0  0  0  0  0  0  0  0  0  0  0
   -4.1965   -1.5075   -0.7610 H   0  0  0  0  0  0  0  0  0  0  0  0
   -5.3405   -1.5119    0.5956 H   0  0  0  0  0  0  0  0  0  0  0  0
  1  2  1  0
  2  3  1  0
  3  4  1  0
  4  5  1  1
  5  6  1  0
  6  7  2  0
  6  8  1  0
  8  9  1  0
  9 10  1  0
 10 11  1  0
  4 12  1  0
 12 13  2  0
 12 14  1  0
 14 15  1  0
  4 16  1  0
 16 17  1  6
 16 18  1  0
 18 19  1  0
 19 20  1  0
 19 21  1  0
 21 22  1  0
 22 23  1  0
 23 24  1  0
 24 25  1  0
 25 26  2  0
 26 27  1  0
 27 28  2  0
 27 29  1  0
 29 30  1  0
 30 31  1  0
 31 32  1  6
 16  1  1  0
 31 21  1  0
 22  1  1  0
 31 25  1  0
  1 33  1  1
  2 34  1  0
  2 35  1  0
  3 36  1  0
  3 37  1  0
  8 38  1  0
  8 39  1  0
  9 40  1  0
  9 41  1  0
 10 42  1  0
 10 43  1  0
 11 44  1  0
 11 45  1  0
 11 46  1  0
 14 47  1  0
 14 48  1  0
 15 49  1  0
 17 50  1  0
 17 51  1  0
 17 52  1  0
 18 53  1  0
 18 54  1  0
 19 55  1  1
 20 56  1  0
 21 57  1  1
 22 58  1  6
 23 59  1  0
 23 60  1  0
 24 61  1  0
 24 62  1  0
 26 63  1  0
 29 64  1  0
 29 65  1  0
 30 66  1  0
 30 67  1  0
 32 68  1  0
 32 69  1  0
 32 70  1  0
M  END
$$$$
