
     RDKit          3D

 13 13  0  0  0  0  0  0  0  0999 V2000
   -2.0528    1.4046    0.2568 O   0  0  0  0  0  0  0  0  0  0  0  0
   -0.8899    0.6497    0.1004 C   0  0  0  0  0  0  0  0  0  0  0  0
    0.2515    1.2698   -0.4152 C   0  0  0  0  0  0  0  0  0  0  0  0
    1.4263    0.5302   -0.5792 C   0  0  0  0  0  0  0  0  0  0  0  0
    2.4578    1.0850   -1.0437 O   0  0  0  0  0  0  0  0  0  0  0  0
    1.4560   -0.7878   -0.2376 N   0  0  0  0  0  0  0  0  0  0  0  0
    0.3585   -1.4151    0.2665 C   0  0  0  0  0  0  0  0  0  0  0  0
   -0.8376   -0.7124    0.4469 C   0  0  0  0  0  0  0  0  0  0  0  0
   -2.2334   -1.5583    1.1007 Cl  0  0  0  0  0  0  0  0  0  0  0  0
   -2.9116    1.0149    0.6243 H   0  0  0  0  0  0  0  0  0  0  0  0
    0.2235    2.3185   -0.6857 H   0  0  0  0  0  0  0  0  0  0  0  0
    2.3377   -1.3349   -0.3628 H   0  0  0  0  0  0  0  0  0  0  0  0
    0.4139   -2.4644    0.5287 H   0  0  0  0  0  0  0  0  0  0  0  0
  1  2  1  0
  2  3  2  0
  3  4  1  0
  4  5  2  0
  4  6  1  0
  6  7  1  0
  7  8  2  0
  8  9  1  0
  8  2  1  0
  1 10  1  0
  3 11  1  0
  6 12  1  0
  7 13  1  0
M  END
$$$$
