
     RDKit          3D

 27 28  0  0  0  0  0  0  0  0999 V2000
   -5.9104   -0.5042   -1.3536 F   0  0  0  0  0  0  0  0  0  0  0  0
   -4.6756   -0.4035   -0.8030 C   0  0  0  0  0  0  0  0  0  0  0  0
   -3.5435   -0.7774   -1.5511 C   0  0  0  0  0  0  0  0  0  0  0  0
   -2.2952   -0.6570   -0.9441 C   0  0  0  0  0  0  0  0  0  0  0  0
   -2.1548   -0.1922    0.3368 C   0  0  0  0  0  0  0  0  0  0  0  0
   -0.8613   -0.1622    0.6983 N   0  0  0  0  0  0  0  0  0  0  0  0
   -0.1697   -0.6194   -0.3757 C   0  0  0  0  0  0  0  0  0  0  0  0
   -1.0348   -0.9358   -1.4235 C   0  0  0  0  0  0  0  0  0  0  0  0
    1.3004   -0.7463   -0.4371 C   0  0  0  0  0  0  0  0  0  0  0  0
    1.8437   -1.0519   -1.5336 O   0  0  0  0  0  0  0  0  0  0  0  0
    2.1138   -0.5383    0.7287 N   0  0  0  0  0  0  0  0  0  0  0  0
    3.5746   -0.5440    0.6736 C   0  0  0  0  0  0  0  0  0  0  0  0
    4.0904    0.7466    0.0387 C   0  0  0  0  0  0  0  0  0  0  0  0
    5.9094    0.7489   -0.0078 S   0  0  0  0  0  0  0  0  0  0  0  0
   -3.2565    0.1878    1.1023 C   0  0  0  0  0  0  0  0  0  0  0  0
   -4.5321    0.0773    0.5183 C   0  0  0  0  0  0  0  0  0  0  0  0
   -3.6401   -1.1453   -2.5646 H   0  0  0  0  0  0  0  0  0  0  0  0
   -0.4854    0.1660    1.6149 H   0  0  0  0  0  0  0  0  0  0  0  0
   -0.7760   -1.3168   -2.4031 H   0  0  0  0  0  0  0  0  0  0  0  0
    1.6656   -0.4531    1.6672 H   0  0  0  0  0  0  0  0  0  0  0  0
    3.9763   -0.6262    1.7071 H   0  0  0  0  0  0  0  0  0  0  0  0
    3.9279   -1.4270    0.0979 H   0  0  0  0  0  0  0  0  0  0  0  0
    3.7398    1.6236    0.6236 H   0  0  0  0  0  0  0  0  0  0  0  0
    3.7130    0.8380   -1.0012 H   0  0  0  0  0  0  0  0  0  0  0  0
    6.0249    0.8471    1.3923 H   0  0  0  0  0  0  0  0  0  0  0  0
   -3.1363    0.5558    2.1130 H   0  0  0  0  0  0  0  0  0  0  0  0
   -5.4081    0.3633    1.0859 H   0  0  0  0  0  0  0  0  0  0  0  0
  1  2  1  0
  2  3  2  0
  3  4  1  0
  4  5  2  0
  5  6  1  0
  6  7  1  0
  7  8  2  0
  7  9  1  0
  9 10  2  0
  9 11  1  0
 11 12  1  0
 12 13  1  0
 13 14  1  0
  5 15  1  0
 15 16  2  0
 16  2  1  0
  8  4  1  0
  3 17  1  0
  6 18  1  0
  8 19  1  0
 11 20  1  0
 12 21  1  0
 12 22  1  0
 13 23  1  0
 13 24  1  0
 14 25  1  0
 15 26  1  0
 16 27  1  0
M  END
$$$$
