
     RDKit          3D

 57 60  0  0  0  0  0  0  0  0999 V2000
   -5.2558   -1.1801    2.4476 C   0  0  0  0  0  0  0  0  0  0  0  0
   -5.4494   -1.2437    0.9354 C   0  0  0  0  0  0  0  0  0  0  0  0
   -4.2915   -0.5884    0.2170 C   0  0  0  0  0  0  0  0  0  0  0  0
   -4.2744    0.8031   -0.1092 C   0  0  0  0  0  0  0  0  0  0  0  0
   -5.4417    1.7216    0.1738 C   0  0  0  0  0  0  0  0  0  0  0  0
   -6.4120    1.7453   -1.0036 C   0  0  0  0  0  0  0  0  0  0  0  0
   -3.1518    1.3434   -0.7712 C   0  0  0  0  0  0  0  0  0  0  0  0
   -2.0649    0.5217   -1.0621 C   0  0  0  0  0  0  0  0  0  0  0  0
   -0.8148    0.9235   -1.7493 C   0  0  0  0  0  0  0  0  0  0  0  0
    0.0668   -0.3511   -1.6761 C   0  0  0  0  0  0  0  0  0  0  0  0
   -0.8215   -1.4951   -1.1293 C   0  0  0  0  0  0  0  0  0  0  0  0
   -2.0716   -0.8064   -0.7282 C   0  0  0  0  0  0  0  0  0  0  0  0
   -3.1670   -1.3834   -0.0895 C   0  0  0  0  0  0  0  0  0  0  0  0
    1.2932   -0.1741   -0.8707 N   0  0  0  0  0  0  0  0  0  0  0  0
    1.0748    0.3281    0.4989 C   0  0  0  0  0  0  0  0  0  0  0  0
    2.1522   -0.2309    1.4514 C   0  0  2  0  0  0  0  0  0  0  0  0
    1.8760    0.0988    2.7946 O   0  0  0  0  0  0  0  0  0  0  0  0
    3.5505    0.2445    1.0539 C   0  0  0  0  0  0  0  0  0  0  0  0
    4.4258   -0.5062    0.2107 C   0  0  0  0  0  0  0  0  0  0  0  0
    4.0490   -1.7407   -0.3620 C   0  0  0  0  0  0  0  0  0  0  0  0
    4.9317   -2.4499   -1.1673 C   0  0  0  0  0  0  0  0  0  0  0  0
    6.1960   -1.9344   -1.4204 C   0  0  0  0  0  0  0  0  0  0  0  0
    6.9977   -2.5777   -2.1498 O   0  0  0  0  0  0  0  0  0  0  0  0
    6.5670   -0.7378   -0.8911 N   0  0  0  0  0  0  0  0  0  0  0  0
    5.7289   -0.0019   -0.0919 C   0  0  0  0  0  0  0  0  0  0  0  0
    6.1247    1.2593    0.4261 C   0  0  0  0  0  0  0  0  0  0  0  0
    7.3829    1.8280    0.2015 O   0  0  0  0  0  0  0  0  0  0  0  0
    5.2329    1.9983    1.1978 C   0  0  0  0  0  0  0  0  0  0  0  0
    3.9692    1.5093    1.4998 C   0  0  0  0  0  0  0  0  0  0  0  0
   -5.1816   -0.1262    2.7890 H   0  0  0  0  0  0  0  0  0  0  0  0
   -6.1212   -1.6575    2.9536 H   0  0  0  0  0  0  0  0  0  0  0  0
   -4.3308   -1.7219    2.7393 H   0  0  0  0  0  0  0  0  0  0  0  0
   -6.4160   -0.7758    0.6597 H   0  0  0  0  0  0  0  0  0  0  0  0
   -5.5288   -2.3102    0.6308 H   0  0  0  0  0  0  0  0  0  0  0  0
   -5.9780    1.4244    1.0975 H   0  0  0  0  0  0  0  0  0  0  0  0
   -5.0742    2.7557    0.3536 H   0  0  0  0  0  0  0  0  0  0  0  0
   -6.8067    0.7276   -1.2065 H   0  0  0  0  0  0  0  0  0  0  0  0
   -5.9011    2.1245   -1.9144 H   0  0  0  0  0  0  0  0  0  0  0  0
   -7.2645    2.4170   -0.7694 H   0  0  0  0  0  0  0  0  0  0  0  0
   -3.1234    2.3889   -1.0535 H   0  0  0  0  0  0  0  0  0  0  0  0
   -0.3564    1.8066   -1.2584 H   0  0  0  0  0  0  0  0  0  0  0  0
   -1.0438    1.1756   -2.8073 H   0  0  0  0  0  0  0  0  0  0  0  0
    0.3768   -0.6226   -2.7107 H   0  0  0  0  0  0  0  0  0  0  0  0
   -0.3612   -2.0188   -0.2637 H   0  0  0  0  0  0  0  0  0  0  0  0
   -1.0468   -2.2333   -1.9292 H   0  0  0  0  0  0  0  0  0  0  0  0
   -3.1445   -2.4359    0.1663 H   0  0  0  0  0  0  0  0  0  0  0  0
    1.9225    0.4954   -1.3734 H   0  0  0  0  0  0  0  0  0  0  0  0
    1.1113    1.4406    0.5092 H   0  0  0  0  0  0  0  0  0  0  0  0
    0.0825    0.0230    0.8934 H   0  0  0  0  0  0  0  0  0  0  0  0
    2.0906   -1.3339    1.4210 H   0  0  0  0  0  0  0  0  0  0  0  0
    1.4877    1.0115    2.8320 H   0  0  0  0  0  0  0  0  0  0  0  0
    3.0718   -2.1741   -0.2275 H   0  0  0  0  0  0  0  0  0  0  0  0
    4.6282   -3.3960   -1.5992 H   0  0  0  0  0  0  0  0  0  0  0  0
    7.5221   -0.4031   -1.1338 H   0  0  0  0  0  0  0  0  0  0  0  0
    8.1376    1.3924   -0.3067 H   0  0  0  0  0  0  0  0  0  0  0  0
    5.5274    2.9697    1.5755 H   0  0  0  0  0  0  0  0  0  0  0  0
    3.3175    2.1332    2.0962 H   0  0  0  0  0  0  0  0  0  0  0  0
  1  2  1  0
  2  3  1  0
  3  4  2  0
  4  5  1  0
  5  6  1  0
  4  7  1  0
  7  8  2  0
  8  9  1  0
  9 10  1  0
 10 11  1  0
 11 12  1  0
 12 13  2  0
 10 14  1  0
 14 15  1  0
 15 16  1  0
 16 17  1  0
 16 18  1  0
 18 19  2  0
 19 20  1  0
 20 21  2  0
 21 22  1  0
 22 23  2  0
 22 24  1  0
 24 25  1  0
 25 26  2  0
 26 27  1  0
 26 28  1  0
 28 29  2  0
 13  3  1  0
 29 18  1  0
 12  8  1  0
 25 19  1  0
  1 30  1  0
  1 31  1  0
  1 32  1  0
  2 33  1  0
  2 34  1  0
  5 35  1  0
  5 36  1  0
  6 37  1  0
  6 38  1  0
  6 39  1  0
  7 40  1  0
  9 41  1  0
  9 42  1  0
 10 43  1  0
 11 44  1  0
 11 45  1  0
 13 46  1  0
 14 47  1  0
 15 48  1  0
 15 49  1  0
 16 50  1  1
 17 51  1  0
 20 52  1  0
 21 53  1  0
 24 54  1  0
 27 55  1  0
 28 56  1  0
 29 57  1  0
M  END
$$$$
