
     RDKit          3D

 45 48  0  0  0  0  0  0  0  0999 V2000
   -1.9958   -2.6536    5.0413 Cl  0  0  0  0  0  0  0  0  0  0  0  0
   -2.6289   -2.4223    3.4255 C   0  0  0  0  0  0  0  0  0  0  0  0
   -3.7435   -3.0521    2.8916 C   0  0  0  0  0  0  0  0  0  0  0  0
   -4.0099   -2.6735    1.5697 C   0  0  0  0  0  0  0  0  0  0  0  0
   -3.1035   -1.7452    1.0688 C   0  0  0  0  0  0  0  0  0  0  0  0
   -1.9699   -1.3983    2.2705 S   0  0  0  0  0  0  0  0  0  0  0  0
   -3.1378   -1.1861   -0.2940 C   0  0  0  0  0  0  0  0  0  0  0  0
   -2.2424   -0.2930   -0.7161 C   0  0  0  0  0  0  0  0  0  0  0  0
   -2.2849    0.3318   -2.3628 S   0  0  0  0  0  6  0  0  0  0  0  0
   -2.5716   -0.7956   -3.3152 O   0  0  0  0  0  0  0  0  0  0  0  0
   -3.3783    1.3574   -2.4737 O   0  0  0  0  0  0  0  0  0  0  0  0
   -0.7535    1.0565   -2.7924 N   0  0  0  0  0  0  0  0  0  0  0  0
    0.3260    0.0732   -2.5850 C   0  0  0  0  0  0  0  0  0  0  0  0
    1.6567    0.6560   -3.0561 C   0  0  0  0  0  0  0  0  0  0  0  0
    1.9336    1.8949   -2.3267 N   0  0  0  0  0  0  0  0  0  0  0  0
    3.1159    1.9917   -1.4666 C   0  0  0  0  0  0  0  0  0  0  0  0
    2.8273    1.3273   -0.1543 C   0  0  0  0  0  0  0  0  0  0  0  0
    3.0687   -0.0160    0.1288 C   0  0  0  0  0  0  0  0  0  0  0  0
    2.4723   -0.2281    1.3519 C   0  0  0  0  0  0  0  0  0  0  0  0
    1.9046    0.9499    1.7492 C   0  0  0  0  0  0  0  0  0  0  0  0
    2.1101    1.9120    0.8351 N   0  0  0  0  0  0  0  0  0  0  0  0
    1.1852    1.0457    2.9373 C   0  0  0  0  0  0  0  0  0  0  0  0
    1.0763   -0.1205    3.7166 C   0  0  0  0  0  0  0  0  0  0  0  0
    1.6514   -1.2921    3.2972 N   0  0  0  0  0  0  0  0  0  0  0  0
    2.3485   -1.3772    2.1253 C   0  0  0  0  0  0  0  0  0  0  0  0
    0.8484    2.8146   -2.1435 C   0  0  0  0  0  0  0  0  0  0  0  0
    1.0744    4.0441   -1.9834 O   0  0  0  0  0  0  0  0  0  0  0  0
   -0.5483    2.2832   -1.9948 C   0  0  0  0  0  0  0  0  0  0  0  0
   -4.3455   -3.7652    3.4389 H   0  0  0  0  0  0  0  0  0  0  0  0
   -4.8392   -3.0688    0.9975 H   0  0  0  0  0  0  0  0  0  0  0  0
   -3.9141   -1.5231   -0.9701 H   0  0  0  0  0  0  0  0  0  0  0  0
   -1.4662    0.0588   -0.0508 H   0  0  0  0  0  0  0  0  0  0  0  0
    0.4129   -0.2085   -1.5123 H   0  0  0  0  0  0  0  0  0  0  0  0
    0.1207   -0.8462   -3.1752 H   0  0  0  0  0  0  0  0  0  0  0  0
    2.4637   -0.0921   -2.8969 H   0  0  0  0  0  0  0  0  0  0  0  0
    1.6020    0.8776   -4.1438 H   0  0  0  0  0  0  0  0  0  0  0  0
    3.3848    3.0560   -1.2941 H   0  0  0  0  0  0  0  0  0  0  0  0
    3.9881    1.5077   -1.9572 H   0  0  0  0  0  0  0  0  0  0  0  0
    3.5650   -0.7453   -0.4980 H   0  0  0  0  0  0  0  0  0  0  0  0
    1.7479    2.8915    0.8586 H   0  0  0  0  0  0  0  0  0  0  0  0
    0.7251    1.9751    3.2468 H   0  0  0  0  0  0  0  0  0  0  0  0
    0.5269   -0.0970    4.6482 H   0  0  0  0  0  0  0  0  0  0  0  0
    2.7847   -2.3160    1.8110 H   0  0  0  0  0  0  0  0  0  0  0  0
   -1.2663    3.0613   -2.3326 H   0  0  0  0  0  0  0  0  0  0  0  0
   -0.7214    2.0934   -0.9142 H   0  0  0  0  0  0  0  0  0  0  0  0
  1  2  1  0
  2  3  2  0
  3  4  1  0
  4  5  2  0
  5  6  1  0
  5  7  1  0
  7  8  2  0
  8  9  1  0
  9 10  2  0
  9 11  2  0
  9 12  1  0
 12 13  1  0
 13 14  1  0
 14 15  1  0
 15 16  1  0
 16 17  1  0
 17 18  2  0
 18 19  1  0
 19 20  2  0
 20 21  1  0
 20 22  1  0
 22 23  2  0
 23 24  1  0
 24 25  2  0
 15 26  1  0
 26 27  2  0
 26 28  1  0
  6  2  1  0
 28 12  1  0
 21 17  1  0
 25 19  1  0
  3 29  1  0
  4 30  1  0
  7 31  1  0
  8 32  1  0
 13 33  1  0
 13 34  1  0
 14 35  1  0
 14 36  1  0
 16 37  1  0
 16 38  1  0
 18 39  1  0
 21 40  1  0
 22 41  1  0
 23 42  1  0
 25 43  1  0
 28 44  1  0
 28 45  1  0
M  END
$$$$
