
     RDKit          3D

 68 70  0  0  0  0  0  0  0  0999 V2000
    4.3379    0.1912    1.4667 C   0  0  2  0  0  0  0  0  0  0  0  0
    5.2512    0.2150    0.3164 N   0  0  0  0  0  0  0  0  0  0  0  0
    3.4216   -1.0685    1.5168 C   0  0  0  0  0  0  0  0  0  0  0  0
    2.2914   -1.0697    0.4486 C   0  0  0  0  0  0  0  0  0  0  0  0
    1.7953   -2.4815    0.0810 C   0  0  0  0  0  0  0  0  0  0  0  0
    1.8934   -3.4408    1.2704 C   0  0  0  0  0  0  0  0  0  0  0  0
    3.3492   -3.6088    1.7514 C   0  0  0  0  0  0  0  0  0  0  0  0
    4.2366   -2.3779    1.4729 C   0  0  0  0  0  0  0  0  0  0  0  0
    3.5310    1.4713    1.5904 C   0  0  0  0  0  0  0  0  0  0  0  0
    3.2412    1.8605    2.7550 O   0  0  0  0  0  0  0  0  0  0  0  0
    2.9878    2.1952    0.4621 N   0  0  0  0  0  0  0  0  0  0  0  0
    3.6317    2.3352   -0.8370 C   0  0  0  0  0  0  0  0  0  0  0  0
    2.7921    3.3362   -1.6224 C   0  0  0  0  0  0  0  0  0  0  0  0
    1.8871    4.0180   -0.6036 C   0  0  0  0  0  0  0  0  0  0  0  0
    1.8358    3.0775    0.6012 C   0  0  1  0  0  0  0  0  0  0  0  0
    0.5765    2.2519    0.6221 C   0  0  0  0  0  0  0  0  0  0  0  0
    0.2233    1.6286   -0.4162 O   0  0  0  0  0  0  0  0  0  0  0  0
   -0.1775    2.1189    1.8357 N   0  0  0  0  0  0  0  0  0  0  0  0
   -1.2479    1.1362    1.9932 C   0  0  0  0  0  0  0  0  0  0  0  0
   -2.4436    1.5136    1.1542 C   0  0  0  0  0  0  0  0  0  0  0  0
   -2.7941    0.7793   -0.0007 C   0  0  0  0  0  0  0  0  0  0  0  0
   -2.0119   -0.3318   -0.3662 O   0  0  0  0  0  0  0  0  0  0  0  0
   -2.2668   -1.2011   -1.4688 C   0  0  0  0  0  0  0  0  0  0  0  0
   -3.4585   -2.0670   -1.1905 C   0  0  0  0  0  0  0  0  0  0  0  0
   -3.4968   -2.7402   -0.1249 O   0  0  0  0  0  0  0  0  0  0  0  0
   -4.5361   -2.1444   -2.1327 N   0  0  0  0  0  0  0  0  0  0  0  0
   -5.7288   -2.9454   -1.8601 C   0  0  0  0  0  0  0  0  0  0  0  0
   -6.7329   -2.8375   -3.0029 C   0  0  0  0  0  0  0  0  0  0  0  0
   -3.9121    1.1841   -0.7580 C   0  0  0  0  0  0  0  0  0  0  0  0
   -4.6637    2.2964   -0.3738 C   0  0  0  0  0  0  0  0  0  0  0  0
   -4.3118    3.0216    0.7652 C   0  0  0  0  0  0  0  0  0  0  0  0
   -5.2556    4.4218    1.2404 Cl  0  0  0  0  0  0  0  0  0  0  0  0
   -3.2059    2.6336    1.5248 C   0  0  0  0  0  0  0  0  0  0  0  0
    4.9707    0.1496    2.3847 H   0  0  0  0  0  0  0  0  0  0  0  0
    6.1386   -0.2722    0.5806 H   0  0  0  0  0  0  0  0  0  0  0  0
    4.8574   -0.3233   -0.4864 H   0  0  0  0  0  0  0  0  0  0  0  0
    2.9217   -1.0482    2.5133 H   0  0  0  0  0  0  0  0  0  0  0  0
    1.4343   -0.4890    0.8495 H   0  0  0  0  0  0  0  0  0  0  0  0
    2.6119   -0.5677   -0.4854 H   0  0  0  0  0  0  0  0  0  0  0  0
    2.4039   -2.8829   -0.7592 H   0  0  0  0  0  0  0  0  0  0  0  0
    0.7408   -2.4248   -0.2649 H   0  0  0  0  0  0  0  0  0  0  0  0
    1.2696   -3.0460    2.1027 H   0  0  0  0  0  0  0  0  0  0  0  0
    1.4803   -4.4320    0.9837 H   0  0  0  0  0  0  0  0  0  0  0  0
    3.8025   -4.4931    1.2526 H   0  0  0  0  0  0  0  0  0  0  0  0
    3.3399   -3.8161    2.8438 H   0  0  0  0  0  0  0  0  0  0  0  0
    5.0555   -2.3457    2.2243 H   0  0  0  0  0  0  0  0  0  0  0  0
    4.7042   -2.4935    0.4710 H   0  0  0  0  0  0  0  0  0  0  0  0
    4.6661    2.7200   -0.7049 H   0  0  0  0  0  0  0  0  0  0  0  0
    3.6420    1.3699   -1.3802 H   0  0  0  0  0  0  0  0  0  0  0  0
    2.1668    2.7985   -2.3692 H   0  0  0  0  0  0  0  0  0  0  0  0
    3.4327    4.0751   -2.1513 H   0  0  0  0  0  0  0  0  0  0  0  0
    0.8824    4.2340   -1.0303 H   0  0  0  0  0  0  0  0  0  0  0  0
    2.3508    4.9817   -0.2971 H   0  0  0  0  0  0  0  0  0  0  0  0
    1.9188    3.6836    1.5304 H   0  0  0  0  0  0  0  0  0  0  0  0
    0.0984    2.6848    2.6696 H   0  0  0  0  0  0  0  0  0  0  0  0
   -0.8625    0.1250    1.7446 H   0  0  0  0  0  0  0  0  0  0  0  0
   -1.5574    1.1007    3.0604 H   0  0  0  0  0  0  0  0  0  0  0  0
   -1.3844   -1.8584   -1.6106 H   0  0  0  0  0  0  0  0  0  0  0  0
   -2.3932   -0.6121   -2.4020 H   0  0  0  0  0  0  0  0  0  0  0  0
   -4.4653   -1.6033   -3.0247 H   0  0  0  0  0  0  0  0  0  0  0  0
   -6.2074   -2.5885   -0.9226 H   0  0  0  0  0  0  0  0  0  0  0  0
   -5.4379   -4.0102   -1.7310 H   0  0  0  0  0  0  0  0  0  0  0  0
   -7.0481   -1.7807   -3.1356 H   0  0  0  0  0  0  0  0  0  0  0  0
   -7.6284   -3.4521   -2.7724 H   0  0  0  0  0  0  0  0  0  0  0  0
   -6.2784   -3.2066   -3.9469 H   0  0  0  0  0  0  0  0  0  0  0  0
   -4.2091    0.6511   -1.6491 H   0  0  0  0  0  0  0  0  0  0  0  0
   -5.5194    2.5956   -0.9658 H   0  0  0  0  0  0  0  0  0  0  0  0
   -2.9373    3.2051    2.4053 H   0  0  0  0  0  0  0  0  0  0  0  0
  1  2  1  0
  1  3  1  0
  3  4  1  0
  4  5  1  0
  5  6  1  0
  6  7  1  0
  7  8  1  0
  1  9  1  0
  9 10  2  0
  9 11  1  0
 11 12  1  0
 12 13  1  0
 13 14  1  0
 14 15  1  0
 15 16  1  0
 16 17  2  0
 16 18  1  0
 18 19  1  0
 19 20  1  0
 20 21  2  0
 21 22  1  0
 22 23  1  0
 23 24  1  0
 24 25  2  0
 24 26  1  0
 26 27  1  0
 27 28  1  0
 21 29  1  0
 29 30  2  0
 30 31  1  0
 31 32  1  0
 31 33  2  0
  8  3  1  0
 15 11  1  0
 33 20  1  0
  1 34  1  1
  2 35  1  0
  2 36  1  0
  3 37  1  0
  4 38  1  0
  4 39  1  0
  5 40  1  0
  5 41  1  0
  6 42  1  0
  6 43  1  0
  7 44  1  0
  7 45  1  0
  8 46  1  0
  8 47  1  0
 12 48  1  0
 12 49  1  0
 13 50  1  0
 13 51  1  0
 14 52  1  0
 14 53  1  0
 15 54  1  1
 18 55  1  0
 19 56  1  0
 19 57  1  0
 23 58  1  0
 23 59  1  0
 26 60  1  0
 27 61  1  0
 27 62  1  0
 28 63  1  0
 28 64  1  0
 28 65  1  0
 29 66  1  0
 30 67  1  0
 33 68  1  0
M  END
$$$$
