
     RDKit          3D

 63 67  0  0  0  0  0  0  0  0999 V2000
   -4.6870   -0.9731   -1.3577 C   0  0  0  0  0  0  0  0  0  0  0  0
   -4.6613   -0.2562   -0.0024 C   0  0  2  0  0  0  0  0  0  0  0  0
   -3.4920    0.5507    0.1115 O   0  0  0  0  0  0  0  0  0  0  0  0
   -2.4209   -0.1407    0.7322 C   0  0  2  0  0  0  0  0  0  0  0  0
   -2.7336   -0.3669    2.2244 C   0  0  0  0  0  0  0  0  0  0  0  0
   -4.2413   -0.5976    2.4615 C   0  0  2  0  0  0  0  0  0  0  0  0
   -4.4583   -1.4147    3.6586 N   0  0  0  0  0  0  0  0  0  0  0  0
   -4.9072   -1.2083    1.2099 C   0  0  2  0  0  0  0  0  0  0  0  0
   -4.3775   -2.4881    0.9536 O   0  0  0  0  0  0  0  0  0  0  0  0
   -1.2323    0.6224    0.6335 O   0  0  0  0  0  0  0  0  0  0  0  0
   -0.7714    0.7232   -0.7076 C   0  0  1  0  0  0  0  0  0  0  0  0
   -1.0986    2.1163   -1.2700 C   0  0  0  0  0  0  0  0  0  0  0  0
   -0.2116    3.2069   -0.6374 C   0  0  1  0  0  0  0  0  0  0  0  0
   -0.3338    3.1930    0.7684 O   0  0  0  0  0  0  0  0  0  0  0  0
    1.2579    2.9209   -0.9966 C   0  0  0  0  0  0  0  0  0  0  0  0
    1.6831    1.4726   -0.8096 C   0  0  0  0  0  0  0  0  0  0  0  0
    0.7223    0.4343   -0.7244 C   0  0  0  0  0  0  0  0  0  0  0  0
    1.1442   -0.8992   -0.5573 C   0  0  0  0  0  0  0  0  0  0  0  0
    0.1657   -1.8703   -0.3184 O   0  0  0  0  0  0  0  0  0  0  0  0
    2.5205   -1.2281   -0.5920 C   0  0  0  0  0  0  0  0  0  0  0  0
    2.9879   -2.6440   -0.6397 C   0  0  0  0  0  0  0  0  0  0  0  0
    2.2112   -3.5655   -1.0102 O   0  0  0  0  0  0  0  0  0  0  0  0
    4.3995   -2.9702   -0.3552 C   0  0  0  0  0  0  0  0  0  0  0  0
    4.8037   -4.3026   -0.1535 C   0  0  0  0  0  0  0  0  0  0  0  0
    6.1447   -4.6033    0.0946 C   0  0  0  0  0  0  0  0  0  0  0  0
    7.0935   -3.5815    0.1379 C   0  0  0  0  0  0  0  0  0  0  0  0
    6.7045   -2.2558   -0.0672 C   0  0  0  0  0  0  0  0  0  0  0  0
    5.3551   -1.9397   -0.3144 C   0  0  0  0  0  0  0  0  0  0  0  0
    4.9340   -0.5405   -0.5477 C   0  0  0  0  0  0  0  0  0  0  0  0
    5.8174    0.3550   -0.6412 O   0  0  0  0  0  0  0  0  0  0  0  0
    3.4822   -0.1935   -0.6479 C   0  0  0  0  0  0  0  0  0  0  0  0
    3.0618    1.1482   -0.8002 C   0  0  0  0  0  0  0  0  0  0  0  0
    4.0338    2.1434   -0.9645 O   0  0  0  0  0  0  0  0  0  0  0  0
   -0.5973    4.5776   -1.1869 C   0  0  0  0  0  0  0  0  0  0  0  0
   -0.9284    5.7284   -0.2790 C   0  0  0  0  0  0  0  0  0  0  0  0
   -0.6463    4.7519   -2.3966 O   0  0  0  0  0  0  0  0  0  0  0  0
   -3.8288   -1.6698   -1.4577 H   0  0  0  0  0  0  0  0  0  0  0  0
   -5.6331   -1.5444   -1.4696 H   0  0  0  0  0  0  0  0  0  0  0  0
   -4.6270   -0.2256   -2.1771 H   0  0  0  0  0  0  0  0  0  0  0  0
   -5.5183    0.4530   -0.0162 H   0  0  0  0  0  0  0  0  0  0  0  0
   -2.2645   -1.1402    0.2617 H   0  0  0  0  0  0  0  0  0  0  0  0
   -2.1415   -1.2395    2.5789 H   0  0  0  0  0  0  0  0  0  0  0  0
   -2.4125    0.5166    2.8196 H   0  0  0  0  0  0  0  0  0  0  0  0
   -4.7122    0.3963    2.6394 H   0  0  0  0  0  0  0  0  0  0  0  0
   -5.4877   -1.5260    3.8069 H   0  0  0  0  0  0  0  0  0  0  0  0
   -4.0571   -2.3697    3.5148 H   0  0  0  0  0  0  0  0  0  0  0  0
   -6.0095   -1.2777    1.3774 H   0  0  0  0  0  0  0  0  0  0  0  0
   -4.9679   -3.1467    1.4043 H   0  0  0  0  0  0  0  0  0  0  0  0
   -1.2586   -0.0107   -1.3956 H   0  0  0  0  0  0  0  0  0  0  0  0
   -2.1703    2.3532   -1.0980 H   0  0  0  0  0  0  0  0  0  0  0  0
   -0.9436    2.0999   -2.3726 H   0  0  0  0  0  0  0  0  0  0  0  0
   -1.2976    3.2795    0.9936 H   0  0  0  0  0  0  0  0  0  0  0  0
    1.4513    3.1879   -2.0593 H   0  0  0  0  0  0  0  0  0  0  0  0
    1.8803    3.5823   -0.3555 H   0  0  0  0  0  0  0  0  0  0  0  0
    0.3520   -2.7557    0.1318 H   0  0  0  0  0  0  0  0  0  0  0  0
    4.0830   -5.1104   -0.1829 H   0  0  0  0  0  0  0  0  0  0  0  0
    6.4486   -5.6301    0.2523 H   0  0  0  0  0  0  0  0  0  0  0  0
    8.1325   -3.8168    0.3291 H   0  0  0  0  0  0  0  0  0  0  0  0
    7.4585   -1.4796   -0.0308 H   0  0  0  0  0  0  0  0  0  0  0  0
    3.8357    3.1051   -1.2040 H   0  0  0  0  0  0  0  0  0  0  0  0
   -1.8799    5.5249    0.2546 H   0  0  0  0  0  0  0  0  0  0  0  0
   -0.1119    5.8727    0.4592 H   0  0  0  0  0  0  0  0  0  0  0  0
   -1.0445    6.6665   -0.8628 H   0  0  0  0  0  0  0  0  0  0  0  0
  1  2  1  0
  2  3  1  0
  3  4  1  0
  4  5  1  0
  5  6  1  0
  6  7  1  0
  6  8  1  0
  8  9  1  0
  4 10  1  0
 10 11  1  0
 11 12  1  0
 12 13  1  0
 13 14  1  1
 13 15  1  0
 15 16  1  0
 16 17  2  0
 17 18  1  0
 18 19  1  0
 18 20  2  0
 20 21  1  0
 21 22  2  0
 21 23  1  0
 23 24  2  0
 24 25  1  0
 25 26  2  0
 26 27  1  0
 27 28  2  0
 28 29  1  0
 29 30  2  0
 29 31  1  0
 31 32  2  0
 32 33  1  0
 13 34  1  0
 34 35  1  0
 34 36  2  0
  8  2  1  0
 17 11  1  0
 31 20  1  0
 32 16  1  0
 28 23  1  0
  1 37  1  0
  1 38  1  0
  1 39  1  0
  2 40  1  6
  4 41  1  6
  5 42  1  0
  5 43  1  0
  6 44  1  1
  7 45  1  0
  7 46  1  0
  8 47  1  1
  9 48  1  0
 11 49  1  6
 12 50  1  0
 12 51  1  0
 14 52  1  0
 15 53  1  0
 15 54  1  0
 19 55  1  0
 24 56  1  0
 25 57  1  0
 26 58  1  0
 27 59  1  0
 33 60  1  0
 35 61  1  0
 35 62  1  0
 35 63  1  0
M  END
$$$$
