
     RDKit          3D

 47 51  0  0  0  0  0  0  0  0999 V2000
    0.5201   -0.2445   -1.1709 C   0  0  2  0  0  0  0  0  0  0  0  0
    1.2455   -1.4622   -1.8217 C   0  0  0  0  0  0  0  0  0  0  0  0
    2.7612   -1.5286   -1.4917 C   0  0  0  0  0  0  0  0  0  0  0  0
    3.1174   -0.9326   -0.1011 C   0  0  2  0  0  0  0  0  0  0  0  0
    4.2361   -1.5837    0.4525 O   0  0  0  0  0  0  0  0  0  0  0  0
    1.8965   -1.0009    0.8247 C   0  0  0  0  0  0  0  0  0  0  0  0
    1.0411    0.1473    0.2615 C   0  0  1  0  0  0  0  0  0  0  0  0
    2.0786    1.2950    0.1444 C   0  0  0  0  0  0  0  0  0  0  0  0
    3.3190    0.5551   -0.2315 C   0  0  0  0  0  0  0  0  0  0  0  0
    4.4412    1.1443   -0.6601 C   0  0  0  0  0  0  0  0  0  0  0  0
   -0.2286    0.4334    1.1279 C   0  0  1  0  0  0  0  0  0  0  0  0
   -0.1516    1.6574    2.0062 C   0  0  0  0  0  0  0  0  0  0  0  0
    0.0949    1.5090    3.3673 O   0  0  0  0  0  0  0  0  0  0  0  0
   -0.2719    2.8130    1.5156 O   0  0  0  0  0  0  0  0  0  0  0  0
   -1.4006    0.5040    0.1226 C   0  0  2  0  0  0  0  0  0  0  0  0
   -2.7507   -0.1430    0.5239 C   0  0  1  0  0  0  0  0  0  0  0  0
   -3.2391    0.2266    1.9345 C   0  0  0  0  0  0  0  0  0  0  0  0
   -3.7865    0.2039   -0.6068 C   0  0  1  0  0  0  0  0  0  0  0  0
   -4.2443    1.5240   -0.4601 O   0  0  0  0  0  0  0  0  0  0  0  0
   -3.1785    0.0702   -2.0125 C   0  0  0  0  0  0  0  0  0  0  0  0
   -1.8577   -0.1611   -2.2049 C   0  0  0  0  0  0  0  0  0  0  0  0
   -0.9865   -0.4469   -0.9977 C   0  0  1  0  0  0  0  0  0  0  0  0
   -1.3355   -1.7346   -0.4884 O   0  0  0  0  0  0  0  0  0  0  0  0
   -2.3911   -1.5859    0.3898 C   0  0  0  0  0  0  0  0  0  0  0  0
   -2.9912   -2.5512    0.9320 O   0  0  0  0  0  0  0  0  0  0  0  0
    0.6529    0.6171   -1.8639 H   0  0  0  0  0  0  0  0  0  0  0  0
    0.7870   -2.4126   -1.4749 H   0  0  0  0  0  0  0  0  0  0  0  0
    1.1065   -1.4316   -2.9241 H   0  0  0  0  0  0  0  0  0  0  0  0
    3.3353   -1.0094   -2.2910 H   0  0  0  0  0  0  0  0  0  0  0  0
    3.0750   -2.5952   -1.5248 H   0  0  0  0  0  0  0  0  0  0  0  0
    4.4577   -1.1341    1.3101 H   0  0  0  0  0  0  0  0  0  0  0  0
    2.1814   -0.7854    1.8803 H   0  0  0  0  0  0  0  0  0  0  0  0
    1.3836   -1.9878    0.7984 H   0  0  0  0  0  0  0  0  0  0  0  0
    1.7999    2.0575   -0.6147 H   0  0  0  0  0  0  0  0  0  0  0  0
    2.2673    1.7949    1.1180 H   0  0  0  0  0  0  0  0  0  0  0  0
    4.4997    2.2253   -0.7385 H   0  0  0  0  0  0  0  0  0  0  0  0
    5.3055    0.5495   -0.9375 H   0  0  0  0  0  0  0  0  0  0  0  0
   -0.3919   -0.4383    1.8000 H   0  0  0  0  0  0  0  0  0  0  0  0
    0.1647    2.3173    3.9737 H   0  0  0  0  0  0  0  0  0  0  0  0
   -1.5262    1.5460   -0.2566 H   0  0  0  0  0  0  0  0  0  0  0  0
   -2.5554   -0.1709    2.7135 H   0  0  0  0  0  0  0  0  0  0  0  0
   -4.2490   -0.2005    2.1116 H   0  0  0  0  0  0  0  0  0  0  0  0
   -3.2930    1.3302    2.0459 H   0  0  0  0  0  0  0  0  0  0  0  0
   -4.6475   -0.5040   -0.5474 H   0  0  0  0  0  0  0  0  0  0  0  0
   -5.0267    1.4965    0.1505 H   0  0  0  0  0  0  0  0  0  0  0  0
   -3.8163    0.2358   -2.8751 H   0  0  0  0  0  0  0  0  0  0  0  0
   -1.4479   -0.2083   -3.2091 H   0  0  0  0  0  0  0  0  0  0  0  0
  1  2  1  0
  2  3  1  0
  3  4  1  0
  4  5  1  1
  4  6  1  0
  6  7  1  0
  7  8  1  6
  8  9  1  0
  9 10  2  3
  7 11  1  0
 11 12  1  0
 12 13  1  0
 12 14  2  0
 11 15  1  0
 15 16  1  0
 16 17  1  1
 16 18  1  0
 18 19  1  0
 18 20  1  0
 20 21  2  0
 21 22  1  0
 22 23  1  1
 23 24  1  0
 24 25  2  0
  7  1  1  0
 22 15  1  0
 22  1  1  0
  9  4  1  0
 24 16  1  0
  1 26  1  6
  2 27  1  0
  2 28  1  0
  3 29  1  0
  3 30  1  0
  5 31  1  0
  6 32  1  0
  6 33  1  0
  8 34  1  0
  8 35  1  0
 10 36  1  0
 10 37  1  0
 11 38  1  1
 13 39  1  0
 15 40  1  6
 17 41  1  0
 17 42  1  0
 17 43  1  0
 18 44  1  6
 19 45  1  0
 20 46  1  0
 21 47  1  0
M  END
$$$$
