
     RDKit          3D

 38 41  0  0  0  0  0  0  0  0999 V2000
    7.5308   -0.0909   -1.5233 O   0  0  0  0  0  0  0  0  0  0  0  0
    6.9761   -0.7797   -0.0940 S   0  0  0  0  0  6  0  0  0  0  0  0
    7.8908   -0.4021    1.0376 O   0  0  0  0  0  0  0  0  0  0  0  0
    6.9771   -2.2763   -0.2317 O   0  0  0  0  0  0  0  0  0  0  0  0
    5.3418   -0.2171    0.2392 C   0  0  0  0  0  0  0  0  0  0  0  0
    4.2341   -0.9391   -0.2481 C   0  0  0  0  0  0  0  0  0  0  0  0
    2.9586   -0.4513    0.0283 C   0  0  0  0  0  0  0  0  0  0  0  0
    2.7635    0.7045    0.7510 C   0  0  0  0  0  0  0  0  0  0  0  0
    1.3809    1.0150    0.9077 N   0  0  0  0  0  0  0  0  0  0  0  0
    0.6668   -0.0285    0.2293 C   0  0  0  0  0  0  0  0  0  0  0  0
    1.6507   -0.9666   -0.3340 C   0  0  0  0  0  0  0  0  0  0  0  0
    1.4263   -2.0114   -0.9995 O   0  0  0  0  0  0  0  0  0  0  0  0
   -0.6735   -0.1070    0.1406 C   0  0  0  0  0  0  0  0  0  0  0  0
   -1.3876   -1.1495   -0.5393 N   0  0  0  0  0  0  0  0  0  0  0  0
   -2.7701   -0.8379   -0.3843 C   0  0  0  0  0  0  0  0  0  0  0  0
   -2.9652    0.3170    0.3398 C   0  0  0  0  0  0  0  0  0  0  0  0
   -4.2405    0.8103    0.6075 C   0  0  0  0  0  0  0  0  0  0  0  0
   -5.3481    0.0892    0.1189 C   0  0  0  0  0  0  0  0  0  0  0  0
   -5.1465   -1.0935   -0.6307 C   0  0  0  0  0  0  0  0  0  0  0  0
   -3.8472   -1.5661   -0.8852 C   0  0  0  0  0  0  0  0  0  0  0  0
   -6.9812    0.6758    0.4148 S   0  0  0  0  0  6  0  0  0  0  0  0
   -7.4525    1.6920   -0.8382 O   0  0  0  0  0  0  0  0  0  0  0  0
   -7.9344   -0.4825    0.5121 O   0  0  0  0  0  0  0  0  0  0  0  0
   -7.0177    1.4362    1.7106 O   0  0  0  0  0  0  0  0  0  0  0  0
   -1.6574    0.8313    0.7038 C   0  0  0  0  0  0  0  0  0  0  0  0
   -1.4330    1.8756    1.3699 O   0  0  0  0  0  0  0  0  0  0  0  0
    3.8410    1.4414    1.2381 C   0  0  0  0  0  0  0  0  0  0  0  0
    5.1406    0.9739    0.9757 C   0  0  0  0  0  0  0  0  0  0  0  0
    7.5100    0.8860   -1.3603 H   0  0  0  0  0  0  0  0  0  0  0  0
    4.3623   -1.8464   -0.8243 H   0  0  0  0  0  0  0  0  0  0  0  0
    0.9984    1.8419    1.4146 H   0  0  0  0  0  0  0  0  0  0  0  0
   -1.0049   -1.9730   -1.0516 H   0  0  0  0  0  0  0  0  0  0  0  0
   -4.3684    1.7243    1.1731 H   0  0  0  0  0  0  0  0  0  0  0  0
   -5.9939   -1.6444   -1.0184 H   0  0  0  0  0  0  0  0  0  0  0  0
   -3.6882   -2.4706   -1.4577 H   0  0  0  0  0  0  0  0  0  0  0  0
   -7.4103    1.1293   -1.6524 H   0  0  0  0  0  0  0  0  0  0  0  0
    3.6822    2.3516    1.8016 H   0  0  0  0  0  0  0  0  0  0  0  0
    5.9886    1.5383    1.3418 H   0  0  0  0  0  0  0  0  0  0  0  0
  1  2  1  0
  2  3  2  0
  2  4  2  0
  2  5  1  0
  5  6  2  0
  6  7  1  0
  7  8  2  0
  8  9  1  0
  9 10  1  0
 10 11  1  0
 11 12  2  0
 10 13  2  0
 13 14  1  0
 14 15  1  0
 15 16  2  0
 16 17  1  0
 17 18  2  0
 18 19  1  0
 19 20  2  0
 18 21  1  0
 21 22  1  0
 21 23  2  0
 21 24  2  0
 16 25  1  0
 25 26  2  0
  8 27  1  0
 27 28  2  0
 28  5  1  0
 11  7  1  0
 25 13  1  0
 20 15  1  0
  1 29  1  0
  6 30  1  0
  9 31  1  0
 14 32  1  0
 17 33  1  0
 19 34  1  0
 20 35  1  0
 22 36  1  0
 27 37  1  0
 28 38  1  0
M  END
$$$$
