
     RDKit          3D

 41 40  0  0  0  0  0  0  0  0999 V2000
   -5.3367   -0.1261    0.7732 C   0  0  1  0  0  0  0  0  0  0  0  0
   -5.8989   -1.0515    1.7600 N   0  0  0  0  0  0  0  0  0  0  0  0
   -4.9600   -0.8734   -0.5177 C   0  0  0  0  0  0  0  0  0  0  0  0
   -3.5356   -1.9955   -0.2610 S   0  0  0  0  0  0  0  0  0  0  0  0
   -2.2429   -0.7516   -0.6054 C   0  0  0  0  0  0  0  0  0  0  0  0
   -0.8618   -1.3729   -0.4019 C   0  0  0  0  0  0  0  0  0  0  0  0
    0.2485   -0.3544   -0.6855 C   0  0  0  0  0  0  0  0  0  0  0  0
    1.6337   -0.9788   -0.4800 C   0  0  0  0  0  0  0  0  0  0  0  0
    2.7447    0.0392   -0.7643 C   0  0  0  0  0  0  0  0  0  0  0  0
    4.1310   -0.5827   -0.5406 C   0  0  0  0  0  0  0  0  0  0  0  0
    5.2808    0.3399   -0.9842 C   0  0  0  0  0  0  0  0  0  0  0  0
    5.3795    1.6675   -0.2118 C   0  0  0  0  0  0  0  0  0  0  0  0
    5.6417    1.4727    1.2811 C   0  0  0  0  0  0  0  0  0  0  0  0
   -6.3385    0.9486    0.4568 C   0  0  0  0  0  0  0  0  0  0  0  0
   -5.9453    2.2833    0.4610 O   0  0  0  0  0  0  0  0  0  0  0  0
   -7.5257    0.6445    0.1605 O   0  0  0  0  0  0  0  0  0  0  0  0
   -4.4301    0.3573    1.1999 H   0  0  0  0  0  0  0  0  0  0  0  0
   -6.1533   -0.5057    2.6160 H   0  0  0  0  0  0  0  0  0  0  0  0
   -5.1490   -1.7142    2.0625 H   0  0  0  0  0  0  0  0  0  0  0  0
   -4.7286   -0.1512   -1.3308 H   0  0  0  0  0  0  0  0  0  0  0  0
   -5.8241   -1.4850   -0.8557 H   0  0  0  0  0  0  0  0  0  0  0  0
   -2.3642    0.1144    0.0788 H   0  0  0  0  0  0  0  0  0  0  0  0
   -2.3430   -0.4031   -1.6559 H   0  0  0  0  0  0  0  0  0  0  0  0
   -0.7752   -1.7324    0.6471 H   0  0  0  0  0  0  0  0  0  0  0  0
   -0.7491   -2.2433   -1.0852 H   0  0  0  0  0  0  0  0  0  0  0  0
    0.1322    0.5159   -0.0024 H   0  0  0  0  0  0  0  0  0  0  0  0
    0.1589    0.0050   -1.7345 H   0  0  0  0  0  0  0  0  0  0  0  0
    1.7485   -1.8498   -1.1625 H   0  0  0  0  0  0  0  0  0  0  0  0
    1.7238   -1.3374    0.5693 H   0  0  0  0  0  0  0  0  0  0  0  0
    2.6134    0.9090   -0.0858 H   0  0  0  0  0  0  0  0  0  0  0  0
    2.6610    0.3902   -1.8164 H   0  0  0  0  0  0  0  0  0  0  0  0
    4.2044   -1.5193   -1.1357 H   0  0  0  0  0  0  0  0  0  0  0  0
    4.2536   -0.8652    0.5265 H   0  0  0  0  0  0  0  0  0  0  0  0
    6.2397   -0.2118   -0.8730 H   0  0  0  0  0  0  0  0  0  0  0  0
    5.1630    0.5675   -2.0662 H   0  0  0  0  0  0  0  0  0  0  0  0
    4.4613    2.2743   -0.3557 H   0  0  0  0  0  0  0  0  0  0  0  0
    6.2235    2.2517   -0.6384 H   0  0  0  0  0  0  0  0  0  0  0  0
    6.5141    0.8037    1.4393 H   0  0  0  0  0  0  0  0  0  0  0  0
    4.7488    1.0454    1.7828 H   0  0  0  0  0  0  0  0  0  0  0  0
    5.8604    2.4559    1.7485 H   0  0  0  0  0  0  0  0  0  0  0  0
   -6.6046    3.0197    0.2391 H   0  0  0  0  0  0  0  0  0  0  0  0
  1  2  1  0
  1  3  1  0
  3  4  1  0
  4  5  1  0
  5  6  1  0
  6  7  1  0
  7  8  1  0
  8  9  1  0
  9 10  1  0
 10 11  1  0
 11 12  1  0
 12 13  1  0
  1 14  1  0
 14 15  1  0
 14 16  2  0
  1 17  1  1
  2 18  1  0
  2 19  1  0
  3 20  1  0
  3 21  1  0
  5 22  1  0
  5 23  1  0
  6 24  1  0
  6 25  1  0
  7 26  1  0
  7 27  1  0
  8 28  1  0
  8 29  1  0
  9 30  1  0
  9 31  1  0
 10 32  1  0
 10 33  1  0
 11 34  1  0
 11 35  1  0
 12 36  1  0
 12 37  1  0
 13 38  1  0
 13 39  1  0
 13 40  1  0
 15 41  1  0
M  END
$$$$
