
     RDKit          3D

 51 56  0  0  0  0  0  0  0  0999 V2000
    2.4047    1.5156   -1.1058 C   0  0  1  0  0  0  0  0  0  0  0  0
    2.7075    0.1717   -1.7339 C   0  0  0  0  0  0  0  0  0  0  0  0
    2.1505   -0.7845   -0.7777 N   0  0  0  0  0  0  0  0  0  0  0  0
    2.4937   -2.1900   -1.0628 C   0  0  0  0  0  0  0  0  0  0  0  0
    1.3431   -2.8416   -1.8459 C   0  0  0  0  0  0  0  0  0  0  0  0
    0.0922   -2.7792   -1.0804 N   0  0  0  0  0  0  0  0  0  0  0  0
   -0.6489   -1.6822   -0.9525 N   0  0  0  0  0  0  0  0  0  0  0  0
   -1.6013   -1.9129   -0.0151 C   0  0  0  0  0  0  0  0  0  0  0  0
   -2.5117   -1.0062    0.5900 C   0  0  0  0  0  0  0  0  0  0  0  0
   -3.3363   -1.5480    1.6142 C   0  0  0  0  0  0  0  0  0  0  0  0
   -3.2425   -2.9040    1.9968 C   0  0  0  0  0  0  0  0  0  0  0  0
   -2.2928   -3.7506    1.4099 C   0  0  0  0  0  0  0  0  0  0  0  0
   -1.4846   -3.2149    0.4176 C   0  0  0  0  0  0  0  0  0  0  0  0
   -0.3995   -3.7283   -0.2548 C   0  0  0  0  0  0  0  0  0  0  0  0
    0.0961   -4.8769   -0.1029 O   0  0  0  0  0  0  0  0  0  0  0  0
   -2.4329    0.4739    0.3516 C   0  0  0  0  0  0  0  0  0  0  0  0
   -1.2656    0.9693   -0.1228 N   0  0  0  0  0  0  0  0  0  0  0  0
   -1.0117    2.2913   -0.2330 C   0  0  0  0  0  0  0  0  0  0  0  0
   -1.9679    3.2113    0.2112 C   0  0  0  0  0  0  0  0  0  0  0  0
   -3.1790    2.7473    0.6356 N   0  0  0  0  0  0  0  0  0  0  0  0
   -3.4477    1.4065    0.6881 C   0  0  0  0  0  0  0  0  0  0  0  0
   -4.6020    1.0241    1.0171 O   0  0  0  0  0  0  0  0  0  0  0  0
   -1.6569    4.5806    0.1976 C   0  0  0  0  0  0  0  0  0  0  0  0
   -0.3965    5.0067   -0.2525 C   0  0  0  0  0  0  0  0  0  0  0  0
    0.5387    4.0760   -0.7312 C   0  0  0  0  0  0  0  0  0  0  0  0
    0.2090    2.7156   -0.7535 C   0  0  0  0  0  0  0  0  0  0  0  0
    1.0206    1.7513   -1.3518 O   0  0  0  0  0  0  0  0  0  0  0  0
    2.5724   -0.2825    0.5353 C   0  0  2  0  0  0  0  0  0  0  0  0
    1.5592   -0.6729    1.6167 C   0  0  0  0  0  0  0  0  0  0  0  0
    2.6750    1.2480    0.3796 C   0  0  0  0  0  0  0  0  0  0  0  0
    3.0305    2.3348   -1.5211 H   0  0  0  0  0  0  0  0  0  0  0  0
    2.2188    0.0667   -2.7275 H   0  0  0  0  0  0  0  0  0  0  0  0
    3.8095    0.0413   -1.8438 H   0  0  0  0  0  0  0  0  0  0  0  0
    3.4369   -2.2722   -1.6475 H   0  0  0  0  0  0  0  0  0  0  0  0
    2.6403   -2.7661   -0.1229 H   0  0  0  0  0  0  0  0  0  0  0  0
    1.2082   -2.3172   -2.8162 H   0  0  0  0  0  0  0  0  0  0  0  0
    1.6012   -3.8992   -2.0701 H   0  0  0  0  0  0  0  0  0  0  0  0
   -0.4792   -0.8084   -1.4946 H   0  0  0  0  0  0  0  0  0  0  0  0
   -4.0062   -0.9267    2.1872 H   0  0  0  0  0  0  0  0  0  0  0  0
   -3.8739   -3.2813    2.7909 H   0  0  0  0  0  0  0  0  0  0  0  0
   -2.1762   -4.7748    1.7401 H   0  0  0  0  0  0  0  0  0  0  0  0
   -3.9211    3.4261    0.9232 H   0  0  0  0  0  0  0  0  0  0  0  0
   -2.3778    5.3113    0.5421 H   0  0  0  0  0  0  0  0  0  0  0  0
   -0.1540    6.0615   -0.2535 H   0  0  0  0  0  0  0  0  0  0  0  0
    1.4891    4.4154   -1.1217 H   0  0  0  0  0  0  0  0  0  0  0  0
    3.5737   -0.6920    0.8063 H   0  0  0  0  0  0  0  0  0  0  0  0
    1.4867   -1.7769    1.7022 H   0  0  0  0  0  0  0  0  0  0  0  0
    0.5550   -0.2702    1.3761 H   0  0  0  0  0  0  0  0  0  0  0  0
    1.8814   -0.2681    2.5993 H   0  0  0  0  0  0  0  0  0  0  0  0
    3.7057    1.5799    0.6333 H   0  0  0  0  0  0  0  0  0  0  0  0
    1.9668    1.8018    1.0335 H   0  0  0  0  0  0  0  0  0  0  0  0
  1  2  1  0
  2  3  1  0
  3  4  1  0
  4  5  1  0
  5  6  1  0
  6  7  1  0
  7  8  1  0
  8  9  2  0
  9 10  1  0
 10 11  2  0
 11 12  1  0
 12 13  2  0
 13 14  1  0
 14 15  2  0
  9 16  1  0
 16 17  2  0
 17 18  1  0
 18 19  2  0
 19 20  1  0
 20 21  1  0
 21 22  2  0
 19 23  1  0
 23 24  2  0
 24 25  1  0
 25 26  2  0
 26 27  1  0
  3 28  1  0
 28 29  1  0
 28 30  1  0
 27  1  1  0
 30  1  1  0
 14  6  1  0
 21 16  1  0
 13  8  1  0
 26 18  1  0
  1 31  1  6
  2 32  1  0
  2 33  1  0
  4 34  1  0
  4 35  1  0
  5 36  1  0
  5 37  1  0
  7 38  1  0
 10 39  1  0
 11 40  1  0
 12 41  1  0
 20 42  1  0
 23 43  1  0
 24 44  1  0
 25 45  1  0
 28 46  1  1
 29 47  1  0
 29 48  1  0
 29 49  1  0
 30 50  1  0
 30 51  1  0
M  END
$$$$
