
     RDKit          3D

 32 32  0  0  0  0  0  0  0  0999 V2000
    2.1459    3.3227   -1.7468 C   0  0  0  0  0  0  0  0  0  0  0  0
    2.7832    2.1046   -1.3753 O   0  0  0  0  0  0  0  0  0  0  0  0
    2.1060    0.9483   -0.9590 C   0  0  0  0  0  0  0  0  0  0  0  0
    0.7038    0.8847   -0.8695 C   0  0  0  0  0  0  0  0  0  0  0  0
    0.0582   -0.2983   -0.4556 C   0  0  0  0  0  0  0  0  0  0  0  0
   -1.4587   -0.3489   -0.3258 C   0  0  0  0  0  0  0  0  0  0  0  0
   -2.0926    0.3842   -1.3497 O   0  0  0  0  0  0  0  0  0  0  0  0
   -1.9224    0.0610    1.0986 C   0  0  0  0  0  0  0  0  0  0  0  0
   -3.4483   -0.0340    1.2469 C   0  0  0  0  0  0  0  0  0  0  0  0
   -1.4387    1.3990    1.4589 N   0  0  0  0  0  0  0  0  0  0  0  0
    0.8396   -1.4177   -0.0884 C   0  0  0  0  0  0  0  0  0  0  0  0
    0.1963   -2.5796    0.3716 O   0  0  0  0  0  0  0  0  0  0  0  0
    0.8644   -3.7680    0.7825 C   0  0  0  0  0  0  0  0  0  0  0  0
    2.2420   -1.3443   -0.1857 C   0  0  0  0  0  0  0  0  0  0  0  0
    2.8627   -0.1740   -0.6206 C   0  0  0  0  0  0  0  0  0  0  0  0
    1.5656    3.7267   -0.8905 H   0  0  0  0  0  0  0  0  0  0  0  0
    2.9198    4.0642   -2.0323 H   0  0  0  0  0  0  0  0  0  0  0  0
    1.4772    3.1539   -2.6172 H   0  0  0  0  0  0  0  0  0  0  0  0
    0.1173    1.7570   -1.1147 H   0  0  0  0  0  0  0  0  0  0  0  0
   -1.7800   -1.4022   -0.4766 H   0  0  0  0  0  0  0  0  0  0  0  0
   -2.0919    1.3439   -1.1070 H   0  0  0  0  0  0  0  0  0  0  0  0
   -1.4779   -0.6697    1.8123 H   0  0  0  0  0  0  0  0  0  0  0  0
   -3.7423    0.2066    2.2905 H   0  0  0  0  0  0  0  0  0  0  0  0
   -3.7914   -1.0653    1.0173 H   0  0  0  0  0  0  0  0  0  0  0  0
   -3.9589    0.6753    0.5615 H   0  0  0  0  0  0  0  0  0  0  0  0
   -1.5430    1.5199    2.4927 H   0  0  0  0  0  0  0  0  0  0  0  0
   -2.0359    2.1307    1.0103 H   0  0  0  0  0  0  0  0  0  0  0  0
    1.5332   -3.5522    1.6424 H   0  0  0  0  0  0  0  0  0  0  0  0
    1.4491   -4.1891   -0.0624 H   0  0  0  0  0  0  0  0  0  0  0  0
    0.1096   -4.5164    1.0993 H   0  0  0  0  0  0  0  0  0  0  0  0
    2.8652   -2.1873    0.0788 H   0  0  0  0  0  0  0  0  0  0  0  0
    3.9428   -0.1357   -0.6866 H   0  0  0  0  0  0  0  0  0  0  0  0
  1  2  1  0
  2  3  1  0
  3  4  2  0
  4  5  1  0
  5  6  1  0
  6  7  1  0
  6  8  1  0
  8  9  1  0
  8 10  1  0
  5 11  2  0
 11 12  1  0
 12 13  1  0
 11 14  1  0
 14 15  2  0
 15  3  1  0
  1 16  1  0
  1 17  1  0
  1 18  1  0
  4 19  1  0
  6 20  1  0
  7 21  1  0
  8 22  1  0
  9 23  1  0
  9 24  1  0
  9 25  1  0
 10 26  1  0
 10 27  1  0
 13 28  1  0
 13 29  1  0
 13 30  1  0
 14 31  1  0
 15 32  1  0
M  END
$$$$
