
     RDKit          3D

 48 51  0  0  0  0  0  0  0  0999 V2000
   -4.3899    1.2980    3.8286 C   0  0  0  0  0  0  0  0  0  0  0  0
   -3.5481    0.8602    2.7757 O   0  0  0  0  0  0  0  0  0  0  0  0
   -4.0553    0.0874    1.7550 N   0  0  0  0  0  0  0  0  0  0  0  0
   -3.3035   -0.3228    0.7816 C   0  0  0  0  0  0  0  0  0  0  0  0
   -1.8544   -0.0388    0.6789 C   0  0  0  0  0  0  0  0  0  0  0  0
   -1.4384   -0.7583   -0.5151 N   0  0  0  0  0  0  0  0  0  0  0  0
   -2.5443   -1.4636   -1.1654 C   0  0  0  0  0  0  0  0  0  0  0  0
   -3.8065   -1.1793   -0.3279 C   0  0  0  0  0  0  0  0  0  0  0  0
   -4.9011   -0.4561   -1.1321 C   0  0  0  0  0  0  0  0  0  0  0  0
   -5.3938   -1.3114   -2.2083 N   0  0  0  0  0  0  0  0  0  0  0  0
   -0.0687   -0.7421   -0.9725 C   0  0  0  0  0  0  0  0  0  0  0  0
    0.8419   -0.0023   -0.2822 N   0  0  0  0  0  0  0  0  0  0  0  0
    2.1582    0.0744   -0.6237 C   0  0  0  0  0  0  0  0  0  0  0  0
    2.6195   -0.6306   -1.7535 C   0  0  0  0  0  0  0  0  0  0  0  0
    1.7045   -1.4059   -2.4843 C   0  0  0  0  0  0  0  0  0  0  0  0
    0.3636   -1.4674   -2.1009 C   0  0  0  0  0  0  0  0  0  0  0  0
   -0.4831   -2.2305   -2.8345 F   0  0  0  0  0  0  0  0  0  0  0  0
    3.9720   -0.5317   -2.1228 C   0  0  0  0  0  0  0  0  0  0  0  0
    4.3971   -1.1672   -3.1273 O   0  0  0  0  0  0  0  0  0  0  0  0
    4.8441    0.2843   -1.3729 C   0  0  0  0  0  0  0  0  0  0  0  0
    4.3300    0.9677   -0.2583 C   0  0  0  0  0  0  0  0  0  0  0  0
    3.0245    0.8296    0.1229 N   0  0  0  0  0  0  0  0  0  0  0  0
    2.5360    1.6030    1.2768 C   0  0  0  0  0  0  0  0  0  0  0  0
    3.3265    1.3984    2.5654 C   0  0  0  0  0  0  0  0  0  0  0  0
    1.9636    0.7527    2.4058 C   0  0  0  0  0  0  0  0  0  0  0  0
    6.2796    0.4475   -1.7274 C   0  0  0  0  0  0  0  0  0  0  0  0
    7.1055    1.2531   -0.9469 O   0  0  0  0  0  0  0  0  0  0  0  0
    6.7693   -0.1357   -2.7320 O   0  0  0  0  0  0  0  0  0  0  0  0
   -4.8167    0.4205    4.3582 H   0  0  0  0  0  0  0  0  0  0  0  0
   -5.2119    1.9213    3.4182 H   0  0  0  0  0  0  0  0  0  0  0  0
   -3.7968    1.9028    4.5449 H   0  0  0  0  0  0  0  0  0  0  0  0
   -1.3176   -0.4293    1.5702 H   0  0  0  0  0  0  0  0  0  0  0  0
   -1.6813    1.0517    0.5546 H   0  0  0  0  0  0  0  0  0  0  0  0
   -2.6532   -1.1007   -2.2108 H   0  0  0  0  0  0  0  0  0  0  0  0
   -2.3404   -2.5563   -1.1704 H   0  0  0  0  0  0  0  0  0  0  0  0
   -4.2094   -2.1255    0.0972 H   0  0  0  0  0  0  0  0  0  0  0  0
   -4.4922    0.4839   -1.5659 H   0  0  0  0  0  0  0  0  0  0  0  0
   -5.7462   -0.1858   -0.4594 H   0  0  0  0  0  0  0  0  0  0  0  0
   -5.9244   -2.1042   -1.7791 H   0  0  0  0  0  0  0  0  0  0  0  0
   -6.0850   -0.7574   -2.7639 H   0  0  0  0  0  0  0  0  0  0  0  0
    2.0223   -1.9640   -3.3566 H   0  0  0  0  0  0  0  0  0  0  0  0
    4.9830    1.6164    0.3142 H   0  0  0  0  0  0  0  0  0  0  0  0
    2.0778    2.5995    1.1017 H   0  0  0  0  0  0  0  0  0  0  0  0
    4.1640    0.6695    2.5246 H   0  0  0  0  0  0  0  0  0  0  0  0
    3.3295    2.2734    3.2488 H   0  0  0  0  0  0  0  0  0  0  0  0
    1.1574    1.2466    2.9881 H   0  0  0  0  0  0  0  0  0  0  0  0
    2.0078   -0.3480    2.2598 H   0  0  0  0  0  0  0  0  0  0  0  0
    8.0847    1.3728   -1.1771 H   0  0  0  0  0  0  0  0  0  0  0  0
  1  2  1  0
  2  3  1  0
  3  4  2  0
  4  5  1  0
  5  6  1  0
  6  7  1  0
  7  8  1  0
  8  9  1  0
  9 10  1  0
  6 11  1  0
 11 12  2  0
 12 13  1  0
 13 14  2  0
 14 15  1  0
 15 16  2  0
 16 17  1  0
 14 18  1  0
 18 19  2  0
 18 20  1  0
 20 21  2  0
 21 22  1  0
 22 23  1  0
 23 24  1  0
 24 25  1  0
 20 26  1  0
 26 27  1  0
 26 28  2  0
  8  4  1  0
 16 11  1  0
 25 23  1  0
 22 13  1  0
  1 29  1  0
  1 30  1  0
  1 31  1  0
  5 32  1  0
  5 33  1  0
  7 34  1  0
  7 35  1  0
  8 36  1  0
  9 37  1  0
  9 38  1  0
 10 39  1  0
 10 40  1  0
 15 41  1  0
 21 42  1  0
 23 43  1  0
 24 44  1  0
 24 45  1  0
 25 46  1  0
 25 47  1  0
 27 48  1  0
M  END
$$$$
