
     RDKit          3D

 39 39  0  0  0  0  0  0  0  0999 V2000
   -2.5815   -0.5707   -0.5119 C   0  0  2  0  0  0  0  0  0  0  0  0
   -4.0603   -0.1770   -0.7595 C   0  0  0  0  0  0  0  0  0  0  0  0
   -4.6038   -0.7376   -2.0754 C   0  0  0  0  0  0  0  0  0  0  0  0
   -2.4625   -2.0743   -0.4103 C   0  0  0  0  0  0  0  0  0  0  0  0
   -3.0279   -2.6884    0.4814 O   0  0  0  0  0  0  0  0  0  0  0  0
   -1.9989    0.1228    0.7578 C   0  0  1  0  0  0  0  0  0  0  0  0
   -0.5208   -0.2641    1.0001 C   0  0  0  0  0  0  0  0  0  0  0  0
   -0.0305    0.3135    2.2573 N   0  0  0  0  0  0  0  0  0  0  0  0
    1.5304   -0.3473    2.6408 S   0  0  0  0  0  6  0  0  0  0  0  0
    1.4015   -1.8191    2.9205 O   0  0  0  0  0  0  0  0  0  0  0  0
    2.0631    0.3252    3.8748 O   0  0  0  0  0  0  0  0  0  0  0  0
    2.6531   -0.0802    1.3085 C   0  0  0  0  0  0  0  0  0  0  0  0
    3.2245    1.1837    1.1212 C   0  0  0  0  0  0  0  0  0  0  0  0
    4.0961    1.4121    0.0525 C   0  0  0  0  0  0  0  0  0  0  0  0
    4.4055    0.3785   -0.8493 C   0  0  0  0  0  0  0  0  0  0  0  0
    3.8214   -0.8876   -0.6590 C   0  0  0  0  0  0  0  0  0  0  0  0
    2.9504   -1.1133    0.4108 C   0  0  0  0  0  0  0  0  0  0  0  0
    5.3021    0.6164   -1.9498 N   0  0  0  0  0  4  0  0  0  0  0  0
    5.8701    1.8563   -2.1336 O   0  0  0  0  0  1  0  0  0  0  0  0
    5.5794   -0.2972   -2.7545 O   0  0  0  0  0  0  0  0  0  0  0  0
   -2.1115    1.6233    0.6461 C   0  0  0  0  0  0  0  0  0  0  0  0
   -1.4770    2.2965   -0.3944 O   0  0  0  0  0  0  0  0  0  0  0  0
   -2.7771    2.2710    1.4981 O   0  0  0  0  0  0  0  0  0  0  0  0
   -1.9831   -0.2420   -1.3913 H   0  0  0  0  0  0  0  0  0  0  0  0
   -4.6966   -0.5314    0.0809 H   0  0  0  0  0  0  0  0  0  0  0  0
   -4.1578    0.9281   -0.8107 H   0  0  0  0  0  0  0  0  0  0  0  0
   -5.6381   -0.3673   -2.2366 H   0  0  0  0  0  0  0  0  0  0  0  0
   -3.9722   -0.4053   -2.9266 H   0  0  0  0  0  0  0  0  0  0  0  0
   -4.6319   -1.8472   -2.0494 H   0  0  0  0  0  0  0  0  0  0  0  0
   -1.8662   -2.6172   -1.1364 H   0  0  0  0  0  0  0  0  0  0  0  0
   -2.5890   -0.2133    1.6409 H   0  0  0  0  0  0  0  0  0  0  0  0
    0.1036    0.0820    0.1454 H   0  0  0  0  0  0  0  0  0  0  0  0
   -0.4402   -1.3707    1.0569 H   0  0  0  0  0  0  0  0  0  0  0  0
    0.1139    1.3398    2.1161 H   0  0  0  0  0  0  0  0  0  0  0  0
    2.9914    1.9942    1.8002 H   0  0  0  0  0  0  0  0  0  0  0  0
    4.5253    2.3981   -0.0692 H   0  0  0  0  0  0  0  0  0  0  0  0
    4.0354   -1.7023   -1.3388 H   0  0  0  0  0  0  0  0  0  0  0  0
    2.5038   -2.0917    0.5324 H   0  0  0  0  0  0  0  0  0  0  0  0
   -1.5437    3.3037   -0.4784 H   0  0  0  0  0  0  0  0  0  0  0  0
  1  2  1  0
  2  3  1  0
  1  4  1  0
  4  5  2  0
  1  6  1  0
  6  7  1  0
  7  8  1  0
  8  9  1  0
  9 10  2  0
  9 11  2  0
  9 12  1  0
 12 13  2  0
 13 14  1  0
 14 15  2  0
 15 16  1  0
 16 17  2  0
 15 18  1  0
 18 19  1  0
 18 20  2  0
  6 21  1  0
 21 22  1  0
 21 23  2  0
 17 12  1  0
  1 24  1  6
  2 25  1  0
  2 26  1  0
  3 27  1  0
  3 28  1  0
  3 29  1  0
  4 30  1  0
  6 31  1  1
  7 32  1  0
  7 33  1  0
  8 34  1  0
 13 35  1  0
 14 36  1  0
 16 37  1  0
 17 38  1  0
 22 39  1  0
M  CHG  2  18   1  19  -1
M  END
$$$$
