
     RDKit          3D

 32 31  0  0  0  0  0  0  0  0999 V2000
   -2.5002    2.2552   -0.0040 C   0  0  0  0  0  0  0  0  0  0  0  0
   -2.4436    0.7222    0.0760 C   0  0  0  0  0  0  0  0  0  0  0  0
   -3.4622    0.1337   -0.9187 C   0  0  0  0  0  0  0  0  0  0  0  0
   -2.7752    0.2863    1.5160 C   0  0  0  0  0  0  0  0  0  0  0  0
   -1.1093    0.3289   -0.2757 O   0  0  0  0  0  0  0  0  0  0  0  0
   -0.6160   -0.9845   -0.3277 C   0  0  0  0  0  0  0  0  0  0  0  0
   -1.3553   -1.9713   -0.0662 O   0  0  0  0  0  0  0  0  0  0  0  0
    0.8216   -1.2166   -0.7082 C   0  0  1  0  0  0  0  0  0  0  0  0
    1.0684   -0.7611   -2.0786 N   0  0  0  0  0  0  0  0  0  0  0  0
    1.7557   -0.4946    0.2795 C   0  0  0  0  0  0  0  0  0  0  0  0
    3.2294   -0.8320    0.0217 C   0  0  0  0  0  0  0  0  0  0  0  0
    4.1079   -0.1374    1.0177 C   0  0  0  0  0  0  0  0  0  0  0  0
    4.5010    1.2192    0.8112 N   0  0  0  0  0  0  0  0  0  0  0  0
    4.4702   -0.7409    2.0627 O   0  0  0  0  0  0  0  0  0  0  0  0
   -2.2513    2.5967   -1.0319 H   0  0  0  0  0  0  0  0  0  0  0  0
   -1.7632    2.7048    0.6959 H   0  0  0  0  0  0  0  0  0  0  0  0
   -3.5128    2.6317    0.2585 H   0  0  0  0  0  0  0  0  0  0  0  0
   -3.1710    0.3880   -1.9604 H   0  0  0  0  0  0  0  0  0  0  0  0
   -3.5210   -0.9703   -0.8327 H   0  0  0  0  0  0  0  0  0  0  0  0
   -4.4779    0.5413   -0.7247 H   0  0  0  0  0  0  0  0  0  0  0  0
   -1.9929    0.6504    2.2160 H   0  0  0  0  0  0  0  0  0  0  0  0
   -3.7565    0.7006    1.8335 H   0  0  0  0  0  0  0  0  0  0  0  0
   -2.8327   -0.8179    1.6015 H   0  0  0  0  0  0  0  0  0  0  0  0
    1.0330   -2.3088   -0.6554 H   0  0  0  0  0  0  0  0  0  0  0  0
    0.4498   -1.3009   -2.7273 H   0  0  0  0  0  0  0  0  0  0  0  0
    0.8073    0.2487   -2.1650 H   0  0  0  0  0  0  0  0  0  0  0  0
    1.4942   -0.8033    1.3168 H   0  0  0  0  0  0  0  0  0  0  0  0
    1.6077    0.6057    0.2005 H   0  0  0  0  0  0  0  0  0  0  0  0
    3.3832   -1.9308    0.0969 H   0  0  0  0  0  0  0  0  0  0  0  0
    3.5210   -0.5138   -1.0023 H   0  0  0  0  0  0  0  0  0  0  0  0
    5.1016    1.7066    1.5126 H   0  0  0  0  0  0  0  0  0  0  0  0
    4.1891    1.7402   -0.0382 H   0  0  0  0  0  0  0  0  0  0  0  0
  1  2  1  0
  2  3  1  0
  2  4  1  0
  2  5  1  0
  5  6  1  0
  6  7  2  0
  6  8  1  0
  8  9  1  0
  8 10  1  0
 10 11  1  0
 11 12  1  0
 12 13  1  0
 12 14  2  0
  1 15  1  0
  1 16  1  0
  1 17  1  0
  3 18  1  0
  3 19  1  0
  3 20  1  0
  4 21  1  0
  4 22  1  0
  4 23  1  0
  8 24  1  6
  9 25  1  0
  9 26  1  0
 10 27  1  0
 10 28  1  0
 11 29  1  0
 11 30  1  0
 13 31  1  0
 13 32  1  0
M  END
$$$$
