
     RDKit          3D

 55 59  0  0  0  0  0  0  0  0999 V2000
    1.5284    7.2391   -0.3910 F   0  0  0  0  0  0  0  0  0  0  0  0
    1.2039    5.9263   -0.2946 C   0  0  0  0  0  0  0  0  0  0  0  0
    0.7783    5.3995    0.9287 C   0  0  0  0  0  0  0  0  0  0  0  0
    0.4436    4.0459    1.0300 C   0  0  0  0  0  0  0  0  0  0  0  0
    0.5278    3.2129   -0.0964 C   0  0  0  0  0  0  0  0  0  0  0  0
    0.9624    3.7439   -1.3221 C   0  0  0  0  0  0  0  0  0  0  0  0
    1.0557    2.9525   -2.4208 F   0  0  0  0  0  0  0  0  0  0  0  0
    1.2965    5.0989   -1.4182 C   0  0  0  0  0  0  0  0  0  0  0  0
    0.1839    1.7826    0.0175 C   0  0  0  0  0  0  0  0  0  0  0  0
    1.2301    0.8575    0.1167 C   0  0  0  0  0  0  0  0  0  0  0  0
    0.9709   -0.5180    0.2106 C   0  0  0  0  0  0  0  0  0  0  0  0
   -0.3582   -0.9629    0.1858 C   0  0  0  0  0  0  0  0  0  0  0  0
   -1.4272   -0.0542    0.0744 C   0  0  0  0  0  0  0  0  0  0  0  0
   -1.1575    1.3333    0.0140 C   0  0  0  0  0  0  0  0  0  0  0  0
   -2.3126    2.2949   -0.1916 C   0  0  0  0  0  0  0  0  0  0  0  0
   -3.5680    1.8359    0.5514 C   0  0  0  0  0  0  0  0  0  0  0  0
   -3.8739    0.4113    0.2146 C   0  0  0  0  0  0  0  0  0  0  0  0
   -5.0745    0.0322    0.1379 O   0  0  0  0  0  0  0  0  0  0  0  0
   -2.7964   -0.5238    0.0301 N   0  0  0  0  0  0  0  0  0  0  0  0
   -3.1031   -1.8997   -0.2561 C   0  0  0  0  0  0  0  0  0  0  0  0
   -3.0267   -2.3818   -1.5764 C   0  0  0  0  0  0  0  0  0  0  0  0
   -2.5793   -1.3176   -2.9030 Cl  0  0  0  0  0  0  0  0  0  0  0  0
   -3.3164   -3.7234   -1.8481 C   0  0  0  0  0  0  0  0  0  0  0  0
   -3.6800   -4.5873   -0.8126 C   0  0  0  0  0  0  0  0  0  0  0  0
   -3.7549   -4.1154    0.4998 C   0  0  0  0  0  0  0  0  0  0  0  0
   -3.4676   -2.7757    0.7836 C   0  0  0  0  0  0  0  0  0  0  0  0
   -3.5425   -2.2191    2.4497 Cl  0  0  0  0  0  0  0  0  0  0  0  0
    2.1055   -1.5221    0.3175 C   0  0  0  0  0  0  0  0  0  0  0  0
    2.9659   -1.5483   -0.9674 C   0  0  0  0  0  0  0  0  0  0  0  0
    4.4032   -2.0387   -0.6990 C   0  0  0  0  0  0  0  0  0  0  0  0
    4.4531   -2.9827    0.4251 N   0  0  0  0  0  0  0  0  0  0  0  0
    4.0733   -2.3468    1.7023 C   0  0  0  0  0  0  0  0  0  0  0  0
    2.9776   -1.2661    1.5578 C   0  0  0  0  0  0  0  0  0  0  0  0
    0.7085    6.0390    1.7991 H   0  0  0  0  0  0  0  0  0  0  0  0
    0.1166    3.6466    1.9823 H   0  0  0  0  0  0  0  0  0  0  0  0
    1.6278    5.5079   -2.3641 H   0  0  0  0  0  0  0  0  0  0  0  0
    2.2529    1.2149    0.1142 H   0  0  0  0  0  0  0  0  0  0  0  0
   -0.5584   -2.0241    0.2548 H   0  0  0  0  0  0  0  0  0  0  0  0
   -2.5291    2.3606   -1.2800 H   0  0  0  0  0  0  0  0  0  0  0  0
   -2.0664    3.3152    0.1667 H   0  0  0  0  0  0  0  0  0  0  0  0
   -3.4059    1.9195    1.6477 H   0  0  0  0  0  0  0  0  0  0  0  0
   -4.4225    2.4886    0.2694 H   0  0  0  0  0  0  0  0  0  0  0  0
   -3.2605   -4.0977   -2.8623 H   0  0  0  0  0  0  0  0  0  0  0  0
   -3.9024   -5.6246   -1.0273 H   0  0  0  0  0  0  0  0  0  0  0  0
   -4.0325   -4.7932    1.2970 H   0  0  0  0  0  0  0  0  0  0  0  0
    1.6719   -2.5406    0.4443 H   0  0  0  0  0  0  0  0  0  0  0  0
    2.4795   -2.2216   -1.7070 H   0  0  0  0  0  0  0  0  0  0  0  0
    3.0274   -0.5414   -1.4342 H   0  0  0  0  0  0  0  0  0  0  0  0
    4.8022   -2.5323   -1.6112 H   0  0  0  0  0  0  0  0  0  0  0  0
    5.0638   -1.1697   -0.4816 H   0  0  0  0  0  0  0  0  0  0  0  0
    3.7995   -3.7771    0.2272 H   0  0  0  0  0  0  0  0  0  0  0  0
    4.9768   -1.8917    2.1620 H   0  0  0  0  0  0  0  0  0  0  0  0
    3.7167   -3.1330    2.4041 H   0  0  0  0  0  0  0  0  0  0  0  0
    3.4679   -0.2717    1.4761 H   0  0  0  0  0  0  0  0  0  0  0  0
    2.3449   -1.2563    2.4725 H   0  0  0  0  0  0  0  0  0  0  0  0
  1  2  1  0
  2  3  2  0
  3  4  1  0
  4  5  2  0
  5  6  1  0
  6  7  1  0
  6  8  2  0
  5  9  1  0
  9 10  2  0
 10 11  1  0
 11 12  2  0
 12 13  1  0
 13 14  2  0
 14 15  1  0
 15 16  1  0
 16 17  1  0
 17 18  2  0
 17 19  1  0
 19 20  1  0
 20 21  2  0
 21 22  1  0
 21 23  1  0
 23 24  2  0
 24 25  1  0
 25 26  2  0
 26 27  1  0
 11 28  1  0
 28 29  1  0
 29 30  1  0
 30 31  1  0
 31 32  1  0
 32 33  1  0
  8  2  1  0
 14  9  1  0
 26 20  1  0
 33 28  1  0
 19 13  1  0
  3 34  1  0
  4 35  1  0
  8 36  1  0
 10 37  1  0
 12 38  1  0
 15 39  1  0
 15 40  1  0
 16 41  1  0
 16 42  1  0
 23 43  1  0
 24 44  1  0
 25 45  1  0
 28 46  1  0
 29 47  1  0
 29 48  1  0
 30 49  1  0
 30 50  1  0
 31 51  1  0
 32 52  1  0
 32 53  1  0
 33 54  1  0
 33 55  1  0
M  END
$$$$
