
     RDKit          3D

 68 71  0  0  0  0  0  0  0  0999 V2000
    2.5582   -0.7617    0.8872 C   0  0  1  0  0  0  0  0  0  0  0  0
    2.7818    0.6116    1.5665 C   0  0  0  0  0  0  0  0  0  0  0  0
    1.4582    1.3844    1.4168 C   0  0  0  0  0  0  0  0  0  0  0  0
    0.4655    0.3356    0.9221 C   0  0  1  0  0  0  0  0  0  0  0  0
   -0.8832    0.8107    0.3200 C   0  0  2  0  0  0  0  0  0  0  0  0
   -1.6903    1.6993    1.3241 C   0  0  2  0  0  0  0  0  0  0  0  0
   -1.3787    1.3825    2.6591 O   0  0  0  0  0  0  0  0  0  0  0  0
   -3.2141    1.5793    1.1474 C   0  0  0  0  0  0  0  0  0  0  0  0
   -3.6286    1.3569   -0.3200 C   0  0  2  0  0  0  0  0  0  0  0  0
   -5.1673    1.4127   -0.4576 C   0  0  0  0  0  0  0  0  0  0  0  0
   -5.8879    0.2168    0.2130 C   0  0  2  0  0  0  0  0  0  0  0  0
   -6.2198    0.5281    1.5419 O   0  0  0  0  0  0  0  0  0  0  0  0
   -5.0505   -1.0788    0.1926 C   0  0  0  0  0  0  0  0  0  0  0  0
   -4.0862   -1.1117   -0.9947 C   0  0  0  0  0  0  0  0  0  0  0  0
   -3.0181    0.0404   -0.9590 C   0  0  1  0  0  0  0  0  0  0  0  0
   -2.6623    0.3704   -2.4378 C   0  0  0  0  0  0  0  0  0  0  0  0
   -1.7262   -0.4264   -0.1573 C   0  0  1  0  0  0  0  0  0  0  0  0
   -0.8735   -1.5089   -0.9152 C   0  0  0  0  0  0  0  0  0  0  0  0
    0.4692   -1.8493   -0.2362 C   0  0  0  0  0  0  0  0  0  0  0  0
    1.2969   -0.5691   -0.0022 C   0  0  2  0  0  0  0  0  0  0  0  0
    1.6496    0.1069   -1.3613 C   0  0  0  0  0  0  0  0  0  0  0  0
    3.8172   -1.5324    0.3452 C   0  0  2  0  0  0  0  0  0  0  0  0
    4.7373   -1.9292    1.5173 C   0  0  0  0  0  0  0  0  0  0  0  0
    4.6634   -0.9633   -0.8358 C   0  0  0  0  0  0  0  0  0  0  0  0
    5.3857    0.3739   -0.6014 C   0  0  0  0  0  0  0  0  0  0  0  0
    6.5079    0.5420   -1.5782 C   0  0  0  0  0  0  0  0  0  0  0  0
    7.7887    0.1153   -1.2418 O   0  0  0  0  0  0  0  0  0  0  0  0
    6.2858    1.0306   -2.7185 O   0  0  0  0  0  0  0  0  0  0  0  0
    2.2056   -1.4197    1.7188 H   0  0  0  0  0  0  0  0  0  0  0  0
    3.0215    0.4689    2.6434 H   0  0  0  0  0  0  0  0  0  0  0  0
    3.5968    1.1998    1.1206 H   0  0  0  0  0  0  0  0  0  0  0  0
    1.1461    1.8234    2.3882 H   0  0  0  0  0  0  0  0  0  0  0  0
    1.5643    2.1988    0.6671 H   0  0  0  0  0  0  0  0  0  0  0  0
    0.1918   -0.2684    1.8224 H   0  0  0  0  0  0  0  0  0  0  0  0
   -0.6732    1.4589   -0.5523 H   0  0  0  0  0  0  0  0  0  0  0  0
   -1.3987    2.7592    1.1280 H   0  0  0  0  0  0  0  0  0  0  0  0
   -1.6485    2.1613    3.2131 H   0  0  0  0  0  0  0  0  0  0  0  0
   -3.5837    0.7492    1.7815 H   0  0  0  0  0  0  0  0  0  0  0  0
   -3.6864    2.5097    1.5335 H   0  0  0  0  0  0  0  0  0  0  0  0
   -3.2370    2.2456   -0.8675 H   0  0  0  0  0  0  0  0  0  0  0  0
   -5.5538    2.3725   -0.0493 H   0  0  0  0  0  0  0  0  0  0  0  0
   -5.4220    1.4177   -1.5399 H   0  0  0  0  0  0  0  0  0  0  0  0
   -6.8255    0.0218   -0.3601 H   0  0  0  0  0  0  0  0  0  0  0  0
   -6.9951    1.1476    1.5087 H   0  0  0  0  0  0  0  0  0  0  0  0
   -5.7368   -1.9512    0.1264 H   0  0  0  0  0  0  0  0  0  0  0  0
   -4.4774   -1.2035    1.1348 H   0  0  0  0  0  0  0  0  0  0  0  0
   -3.6113   -2.1109   -1.0350 H   0  0  0  0  0  0  0  0  0  0  0  0
   -4.7066   -1.0410   -1.9171 H   0  0  0  0  0  0  0  0  0  0  0  0
   -2.4676   -0.5504   -3.0274 H   0  0  0  0  0  0  0  0  0  0  0  0
   -3.5084    0.8859   -2.9405 H   0  0  0  0  0  0  0  0  0  0  0  0
   -1.7769    1.0348   -2.5076 H   0  0  0  0  0  0  0  0  0  0  0  0
   -2.0735   -0.9342    0.7707 H   0  0  0  0  0  0  0  0  0  0  0  0
   -0.6482   -1.1951   -1.9511 H   0  0  0  0  0  0  0  0  0  0  0  0
   -1.4462   -2.4547   -0.9937 H   0  0  0  0  0  0  0  0  0  0  0  0
    1.0375   -2.5574   -0.8777 H   0  0  0  0  0  0  0  0  0  0  0  0
    0.2651   -2.3703    0.7255 H   0  0  0  0  0  0  0  0  0  0  0  0
    0.7854    0.5944   -1.8450 H   0  0  0  0  0  0  0  0  0  0  0  0
    2.4290    0.8850   -1.2460 H   0  0  0  0  0  0  0  0  0  0  0  0
    1.9830   -0.6546   -2.0931 H   0  0  0  0  0  0  0  0  0  0  0  0
    3.4161   -2.4953   -0.0428 H   0  0  0  0  0  0  0  0  0  0  0  0
    4.1873   -2.5688    2.2403 H   0  0  0  0  0  0  0  0  0  0  0  0
    5.6102   -2.5135    1.1558 H   0  0  0  0  0  0  0  0  0  0  0  0
    5.1052   -1.0335    2.0587 H   0  0  0  0  0  0  0  0  0  0  0  0
    5.4345   -1.7324   -1.0693 H   0  0  0  0  0  0  0  0  0  0  0  0
    4.0762   -0.8996   -1.7659 H   0  0  0  0  0  0  0  0  0  0  0  0
    5.8037    0.4298    0.4241 H   0  0  0  0  0  0  0  0  0  0  0  0
    4.6834    1.2176   -0.7518 H   0  0  0  0  0  0  0  0  0  0  0  0
    8.5554    0.2062   -1.8976 H   0  0  0  0  0  0  0  0  0  0  0  0
  1  2  1  0
  2  3  1  0
  3  4  1  0
  4  5  1  0
  5  6  1  0
  6  7  1  0
  6  8  1  0
  8  9  1  0
  9 10  1  0
 10 11  1  0
 11 12  1  0
 11 13  1  0
 13 14  1  0
 14 15  1  0
 15 16  1  6
 15 17  1  0
 17 18  1  0
 18 19  1  0
 19 20  1  0
 20 21  1  6
  1 22  1  0
 22 23  1  0
 22 24  1  0
 24 25  1  0
 25 26  1  0
 26 27  1  0
 26 28  2  0
 20  1  1  0
 20  4  1  0
 17  5  1  0
 15  9  1  0
  1 29  1  1
  2 30  1  0
  2 31  1  0
  3 32  1  0
  3 33  1  0
  4 34  1  1
  5 35  1  6
  6 36  1  6
  7 37  1  0
  8 38  1  0
  8 39  1  0
  9 40  1  6
 10 41  1  0
 10 42  1  0
 11 43  1  6
 12 44  1  0
 13 45  1  0
 13 46  1  0
 14 47  1  0
 14 48  1  0
 16 49  1  0
 16 50  1  0
 16 51  1  0
 17 52  1  1
 18 53  1  0
 18 54  1  0
 19 55  1  0
 19 56  1  0
 21 57  1  0
 21 58  1  0
 21 59  1  0
 22 60  1  6
 23 61  1  0
 23 62  1  0
 23 63  1  0
 24 64  1  0
 24 65  1  0
 25 66  1  0
 25 67  1  0
 27 68  1  0
M  END
$$$$
