
     RDKit          3D

 17 16  0  0  0  0  0  0  0  0999 V2000
   -0.1148   -1.6961    0.2303 N   0  0  0  0  0  0  0  0  0  0  0  0
   -0.4900   -0.2936    0.4277 C   0  0  1  0  0  0  0  0  0  0  0  0
    0.1947    0.6049   -0.6152 C   0  0  0  0  0  0  0  0  0  0  0  0
    1.9727    0.6062   -0.4252 S   0  0  0  0  0  6  0  0  0  0  0  0
    2.3711    1.0164    1.1561 O   0  0  0  0  0  0  0  0  0  0  0  0
    2.5212   -0.7558   -0.7471 O   0  0  0  0  0  0  0  0  0  0  0  0
    2.5644    1.6167   -1.3670 O   0  0  0  0  0  0  0  0  0  0  0  0
   -1.9856   -0.1292    0.3623 C   0  0  0  0  0  0  0  0  0  0  0  0
   -2.6769    0.3523    1.4697 O   0  0  0  0  0  0  0  0  0  0  0  0
   -2.6147   -0.4246   -0.6898 O   0  0  0  0  0  0  0  0  0  0  0  0
   -0.5628   -2.2718    0.9803 H   0  0  0  0  0  0  0  0  0  0  0  0
   -0.4858   -2.0332   -0.6884 H   0  0  0  0  0  0  0  0  0  0  0  0
   -0.1515    0.0234    1.4389 H   0  0  0  0  0  0  0  0  0  0  0  0
   -0.1628    1.6505   -0.4959 H   0  0  0  0  0  0  0  0  0  0  0  0
   -0.0577    0.2667   -1.6435 H   0  0  0  0  0  0  0  0  0  0  0  0
    3.3611    0.9973    1.1835 H   0  0  0  0  0  0  0  0  0  0  0  0
   -3.6827    0.4698    1.4435 H   0  0  0  0  0  0  0  0  0  0  0  0
  1  2  1  0
  2  3  1  0
  3  4  1  0
  4  5  1  0
  4  6  2  0
  4  7  2  0
  2  8  1  0
  8  9  1  0
  8 10  2  0
  1 11  1  0
  1 12  1  0
  2 13  1  1
  3 14  1  0
  3 15  1  0
  5 16  1  0
  9 17  1  0
M  END
$$$$
