
     RDKit          3D

 42 42  0  0  0  0  0  0  0  0999 V2000
   -2.2322    1.2443   -0.8958 C   0  0  2  0  0  0  0  0  0  0  0  0
   -2.6344   -0.2459   -1.0679 C   0  0  0  0  0  0  0  0  0  0  0  0
   -3.3804   -0.9705    0.0913 C   0  0  0  0  0  0  0  0  0  0  0  0
   -4.8677   -0.6019    0.1905 C   0  0  0  0  0  0  0  0  0  0  0  0
   -2.6898   -0.8422    1.4541 C   0  0  0  0  0  0  0  0  0  0  0  0
   -1.2761    1.4243    0.1991 N   0  0  0  0  0  0  0  0  0  0  0  0
    0.0215    1.3139    0.1384 C   0  0  0  0  0  0  0  0  0  0  0  0
    0.7648    1.5244    1.2978 O   0  0  0  0  0  0  0  0  0  0  0  0
    0.7522    1.0271   -1.1517 C   0  0  0  0  0  0  0  0  0  0  0  0
    2.1219    0.5859   -0.8952 N   0  0  0  0  0  0  0  0  0  0  0  0
    2.4759   -0.5702   -0.4058 C   0  0  0  0  0  0  0  0  0  0  0  0
    1.5253   -1.5360   -0.0610 O   0  0  0  0  0  0  0  0  0  0  0  0
    3.9161   -0.8531   -0.1879 C   0  0  0  0  0  0  0  0  0  0  0  0
    4.4464   -2.1645   -0.2645 C   0  0  0  0  0  0  0  0  0  0  0  0
    3.4705   -3.5592   -0.7180 Cl  0  0  0  0  0  0  0  0  0  0  0  0
    5.8101   -2.3810   -0.0289 C   0  0  0  0  0  0  0  0  0  0  0  0
    6.6552   -1.3140    0.2775 C   0  0  0  0  0  0  0  0  0  0  0  0
    6.1457   -0.0169    0.3455 C   0  0  0  0  0  0  0  0  0  0  0  0
    7.2105    1.3238    0.7280 Cl  0  0  0  0  0  0  0  0  0  0  0  0
    4.7868    0.2135    0.1126 C   0  0  0  0  0  0  0  0  0  0  0  0
   -3.4809    2.2209   -0.6851 B   0  0  0  0  0  0  0  0  0  0  0  0
   -4.5467    2.2636   -1.6836 O   0  0  0  0  0  0  0  0  0  0  0  0
   -3.5391    3.1125    0.4725 O   0  0  0  0  0  0  0  0  0  0  0  0
   -1.7726    1.5876   -1.8476 H   0  0  0  0  0  0  0  0  0  0  0  0
   -3.2425   -0.3402   -1.9946 H   0  0  0  0  0  0  0  0  0  0  0  0
   -1.7105   -0.8257   -1.2722 H   0  0  0  0  0  0  0  0  0  0  0  0
   -3.3549   -2.0527   -0.1695 H   0  0  0  0  0  0  0  0  0  0  0  0
   -5.0130    0.3885    0.6649 H   0  0  0  0  0  0  0  0  0  0  0  0
   -5.3970   -1.3525    0.8157 H   0  0  0  0  0  0  0  0  0  0  0  0
   -5.3396   -0.6009   -0.8148 H   0  0  0  0  0  0  0  0  0  0  0  0
   -3.1453   -1.5541    2.1751 H   0  0  0  0  0  0  0  0  0  0  0  0
   -1.6103   -1.0880    1.3651 H   0  0  0  0  0  0  0  0  0  0  0  0
   -2.8060    0.1824    1.8652 H   0  0  0  0  0  0  0  0  0  0  0  0
    0.3118    1.7327    2.1800 H   0  0  0  0  0  0  0  0  0  0  0  0
    0.7936    1.9672   -1.7398 H   0  0  0  0  0  0  0  0  0  0  0  0
    0.2315    0.2690   -1.7703 H   0  0  0  0  0  0  0  0  0  0  0  0
    0.5294   -1.4057   -0.1781 H   0  0  0  0  0  0  0  0  0  0  0  0
    6.2203   -3.3811   -0.0925 H   0  0  0  0  0  0  0  0  0  0  0  0
    7.7072   -1.4964    0.4563 H   0  0  0  0  0  0  0  0  0  0  0  0
    4.4092    1.2265    0.1834 H   0  0  0  0  0  0  0  0  0  0  0  0
   -4.2542    2.9517   -2.3332 H   0  0  0  0  0  0  0  0  0  0  0  0
   -4.0126    2.5929    1.1698 H   0  0  0  0  0  0  0  0  0  0  0  0
  1  2  1  0
  2  3  1  0
  3  4  1  0
  3  5  1  0
  1  6  1  0
  6  7  2  3
  7  8  1  0
  7  9  1  0
  9 10  1  0
 10 11  2  3
 11 12  1  0
 11 13  1  0
 13 14  2  0
 14 15  1  0
 14 16  1  0
 16 17  2  0
 17 18  1  0
 18 19  1  0
 18 20  2  0
  1 21  1  0
 21 22  1  0
 21 23  1  0
 20 13  1  0
  1 24  1  6
  2 25  1  0
  2 26  1  0
  3 27  1  0
  4 28  1  0
  4 29  1  0
  4 30  1  0
  5 31  1  0
  5 32  1  0
  5 33  1  0
  8 34  1  0
  9 35  1  0
  9 36  1  0
 12 37  1  0
 16 38  1  0
 17 39  1  0
 20 40  1  0
 22 41  1  0
 23 42  1  0
M  END
$$$$
