
     RDKit          3D

151154  0  0  0  0  0  0  0  0999 V2000
    5.6575    0.0229    1.8191 C   0  0  2  0  0  0  0  0  0  0  0  0
    4.3084    0.0390    1.0542 C   0  0  0  0  0  0  0  0  0  0  0  0
    3.4253   -1.2179    1.2659 C   0  0  1  0  0  0  0  0  0  0  0  0
    2.8405   -1.2774    2.6897 C   0  0  0  0  0  0  0  0  0  0  0  0
    2.3279   -1.3739    0.1635 C   0  0  2  0  0  0  0  0  0  0  0  0
    1.2662   -0.2463    0.1279 C   0  0  0  0  0  0  0  0  0  0  0  0
    1.7685    1.0680   -0.4428 C   0  0  0  0  0  0  0  0  0  0  0  0
    2.3307    1.0443   -1.5285 O   0  0  0  0  0  0  0  0  0  0  0  0
    1.5732    2.4254    0.2235 C   0  0  2  0  0  0  0  0  0  0  0  0
    0.9854    2.3616    1.6408 C   0  0  0  0  0  0  0  0  0  0  0  0
    0.6713    3.2863   -0.6391 C   0  0  0  0  0  0  0  0  0  0  0  0
    0.7672    4.6377   -0.7423 C   0  0  0  0  0  0  0  0  0  0  0  0
    1.9072    5.3907   -0.0916 C   0  0  0  0  0  0  0  0  0  0  0  0
   -0.2914    5.4544   -1.4847 C   0  0  1  0  0  0  0  0  0  0  0  0
   -0.7807    4.7911   -2.6261 O   0  0  0  0  0  0  0  0  0  0  0  0
   -1.4234    5.9846   -0.5531 C   0  0  1  0  0  0  0  0  0  0  0  0
   -2.2210    6.9078   -1.2806 O   0  0  0  0  0  0  0  0  0  0  0  0
   -1.9044    8.2375   -0.9320 C   0  0  0  0  0  0  0  0  0  0  0  0
   -2.3028    4.8829    0.0223 C   0  0  0  0  0  0  0  0  0  0  0  0
   -1.7764    4.0187    0.7087 O   0  0  0  0  0  0  0  0  0  0  0  0
   -3.8160    4.8501   -0.1844 C   0  0  2  0  0  0  0  0  0  0  0  0
   -4.4816    3.9583    0.8827 C   0  0  0  0  0  0  0  0  0  0  0  0
   -4.1413    4.4014   -1.6361 C   0  0  0  0  0  0  0  0  0  0  0  0
   -5.6386    4.3366   -2.0474 C   0  0  2  0  0  0  0  0  0  0  0  0
   -6.4472    5.5626   -1.5965 C   0  0  0  0  0  0  0  0  0  0  0  0
   -6.2717    3.0362   -1.6158 C   0  0  0  0  0  0  0  0  0  0  0  0
   -7.4568    2.6233   -2.0871 C   0  0  0  0  0  0  0  0  0  0  0  0
   -7.9418    1.2418   -1.8861 C   0  0  0  0  0  0  0  0  0  0  0  0
   -7.5656    0.4850   -0.8478 C   0  0  0  0  0  0  0  0  0  0  0  0
   -7.7298   -0.9795   -0.8174 C   0  0  0  0  0  0  0  0  0  0  0  0
   -7.1492   -1.8118   -1.7124 C   0  0  0  0  0  0  0  0  0  0  0  0
   -6.5330   -1.2711   -2.9892 C   0  0  0  0  0  0  0  0  0  0  0  0
   -7.0479   -3.2957   -1.3661 C   0  0  2  0  0  0  0  0  0  0  0  0
   -6.1901   -3.5526   -0.0914 C   0  0  0  0  0  0  0  0  0  0  0  0
   -4.9121   -2.6954    0.0809 C   0  0  2  0  0  0  0  0  0  0  0  0
   -3.9006   -2.9176   -1.0595 C   0  0  0  0  0  0  0  0  0  0  0  0
   -2.6900   -1.9935   -0.8893 C   0  0  0  0  0  0  0  0  0  0  0  0
   -2.3659   -1.6996    0.5951 C   0  0  1  0  0  0  0  0  0  0  0  0
   -2.7785   -0.2676    0.9963 C   0  0  0  0  0  0  0  0  0  0  0  0
   -2.9681   -2.7890    1.5455 C   0  0  1  0  0  0  0  0  0  0  0  0
   -2.7410   -2.3849    2.8740 O   0  0  0  0  0  0  0  0  0  0  0  0
   -4.3788   -2.9735    1.3752 O   0  0  0  0  0  0  0  0  0  0  0  0
   -2.2497   -4.1192    1.3382 C   0  0  0  0  0  0  0  0  0  0  0  0
   -2.9163   -5.1654    1.1119 O   0  0  0  0  0  0  0  0  0  0  0  0
   -0.7772   -4.2140    1.4492 C   0  0  0  0  0  0  0  0  0  0  0  0
   -0.2093   -3.5872    2.3848 O   0  0  0  0  0  0  0  0  0  0  0  0
    0.0196   -4.9647    0.5003 N   0  0  0  0  0  0  0  0  0  0  0  0
   -0.5990   -5.5472   -0.7057 C   0  0  0  0  0  0  0  0  0  0  0  0
    0.4268   -5.7489   -1.8255 C   0  0  0  0  0  0  0  0  0  0  0  0
    1.6273   -6.5950   -1.3739 C   0  0  0  0  0  0  0  0  0  0  0  0
    1.9831   -6.4176    0.1148 C   0  0  0  0  0  0  0  0  0  0  0  0
    1.4768   -5.0871    0.7081 C   0  0  1  0  0  0  0  0  0  0  0  0
    2.1914   -3.8756    0.1545 C   0  0  0  0  0  0  0  0  0  0  0  0
    3.3078   -3.9941   -0.4221 O   0  0  0  0  0  0  0  0  0  0  0  0
    1.6313   -2.6084    0.3577 O   0  0  0  0  0  0  0  0  0  0  0  0
   -6.5060   -4.0331   -2.4528 O   0  0  0  0  0  0  0  0  0  0  0  0
   -7.1873   -5.2564   -2.6293 C   0  0  0  0  0  0  0  0  0  0  0  0
    6.3809    1.3899    1.6702 C   0  0  0  0  0  0  0  0  0  0  0  0
    7.3812    1.3778    0.5101 C   0  0  0  0  0  0  0  0  0  0  0  0
    8.5116    0.3454    0.7349 C   0  0  1  0  0  0  0  0  0  0  0  0
    9.5856    0.9952    1.3975 O   0  0  0  0  0  0  0  0  0  0  0  0
   10.8302    0.5919    0.8639 C   0  0  0  0  0  0  0  0  0  0  0  0
   11.9559    1.1625    1.7212 C   0  0  0  0  0  0  0  0  0  0  0  0
   11.8570    0.6936    3.0389 O   0  0  0  0  0  0  0  0  0  0  0  0
    8.0512   -0.8700    1.5876 C   0  0  1  0  0  0  0  0  0  0  0  0
    6.5570   -1.1625    1.3701 C   0  0  0  0  0  0  0  0  0  0  0  0
    8.8075   -2.0089    1.2071 O   0  0  0  0  0  0  0  0  0  0  0  0
    9.2211   -2.7385    2.3413 C   0  0  0  0  0  0  0  0  0  0  0  0
    5.4423   -0.0991    2.9023 H   0  0  0  0  0  0  0  0  0  0  0  0
    3.7356    0.9287    1.3839 H   0  0  0  0  0  0  0  0  0  0  0  0
    4.5235    0.1614   -0.0297 H   0  0  0  0  0  0  0  0  0  0  0  0
    4.0803   -2.1059    1.1622 H   0  0  0  0  0  0  0  0  0  0  0  0
    2.2893   -0.3509    2.9411 H   0  0  0  0  0  0  0  0  0  0  0  0
    2.1524   -2.1408    2.7976 H   0  0  0  0  0  0  0  0  0  0  0  0
    3.6500   -1.4159    3.4351 H   0  0  0  0  0  0  0  0  0  0  0  0
    2.8240   -1.4139   -0.8322 H   0  0  0  0  0  0  0  0  0  0  0  0
    0.8061   -0.1425    1.1270 H   0  0  0  0  0  0  0  0  0  0  0  0
    0.4475   -0.5773   -0.5467 H   0  0  0  0  0  0  0  0  0  0  0  0
    2.5830    2.8806    0.3012 H   0  0  0  0  0  0  0  0  0  0  0  0
    0.9021    3.3808    2.0716 H   0  0  0  0  0  0  0  0  0  0  0  0
    1.6467    1.7778    2.3100 H   0  0  0  0  0  0  0  0  0  0  0  0
   -0.0327    1.9162    1.6310 H   0  0  0  0  0  0  0  0  0  0  0  0
   -0.1705    2.7751   -1.0941 H   0  0  0  0  0  0  0  0  0  0  0  0
    1.8016    6.4872   -0.2293 H   0  0  0  0  0  0  0  0  0  0  0  0
    2.8718    5.0813   -0.5457 H   0  0  0  0  0  0  0  0  0  0  0  0
    1.9297    5.1974    0.9999 H   0  0  0  0  0  0  0  0  0  0  0  0
    0.2260    6.3567   -1.8755 H   0  0  0  0  0  0  0  0  0  0  0  0
   -1.4188    4.0938   -2.3359 H   0  0  0  0  0  0  0  0  0  0  0  0
   -0.9296    6.4552    0.3336 H   0  0  0  0  0  0  0  0  0  0  0  0
   -2.1839    8.4432    0.1247 H   0  0  0  0  0  0  0  0  0  0  0  0
   -0.8261    8.4546   -1.0990 H   0  0  0  0  0  0  0  0  0  0  0  0
   -2.4919    8.9224   -1.5770 H   0  0  0  0  0  0  0  0  0  0  0  0
   -4.1982    5.8820   -0.0309 H   0  0  0  0  0  0  0  0  0  0  0  0
   -4.1765    2.8972    0.7556 H   0  0  0  0  0  0  0  0  0  0  0  0
   -5.5858    4.0249    0.8392 H   0  0  0  0  0  0  0  0  0  0  0  0
   -4.1788    4.2931    1.8981 H   0  0  0  0  0  0  0  0  0  0  0  0
   -3.6527    5.1133   -2.3347 H   0  0  0  0  0  0  0  0  0  0  0  0
   -3.6681    3.4123   -1.8277 H   0  0  0  0  0  0  0  0  0  0  0  0
   -5.6518    4.3374   -3.1610 H   0  0  0  0  0  0  0  0  0  0  0  0
   -5.9153    6.4948   -1.8829 H   0  0  0  0  0  0  0  0  0  0  0  0
   -6.6131    5.5645   -0.5007 H   0  0  0  0  0  0  0  0  0  0  0  0
   -7.4392    5.5704   -2.0953 H   0  0  0  0  0  0  0  0  0  0  0  0
   -5.6730    2.3539   -1.0287 H   0  0  0  0  0  0  0  0  0  0  0  0
   -8.0050    3.2543   -2.7754 H   0  0  0  0  0  0  0  0  0  0  0  0
   -8.5683    0.8167   -2.6595 H   0  0  0  0  0  0  0  0  0  0  0  0
   -7.0685    0.9324    0.0031 H   0  0  0  0  0  0  0  0  0  0  0  0
   -8.1100   -1.3931    0.1084 H   0  0  0  0  0  0  0  0  0  0  0  0
   -7.3251   -0.8577   -3.6450 H   0  0  0  0  0  0  0  0  0  0  0  0
   -5.7907   -0.4799   -2.7507 H   0  0  0  0  0  0  0  0  0  0  0  0
   -6.0057   -2.0414   -3.5834 H   0  0  0  0  0  0  0  0  0  0  0  0
   -8.0935   -3.6183   -1.1319 H   0  0  0  0  0  0  0  0  0  0  0  0
   -6.8362   -3.3704    0.7956 H   0  0  0  0  0  0  0  0  0  0  0  0
   -5.9088   -4.6270   -0.0451 H   0  0  0  0  0  0  0  0  0  0  0  0
   -5.2224   -1.6325    0.0677 H   0  0  0  0  0  0  0  0  0  0  0  0
   -4.3561   -2.7056   -2.0441 H   0  0  0  0  0  0  0  0  0  0  0  0
   -3.5830   -3.9796   -1.0786 H   0  0  0  0  0  0  0  0  0  0  0  0
   -2.8740   -1.0480   -1.4464 H   0  0  0  0  0  0  0  0  0  0  0  0
   -1.8104   -2.4723   -1.3722 H   0  0  0  0  0  0  0  0  0  0  0  0
   -1.2606   -1.7147    0.7003 H   0  0  0  0  0  0  0  0  0  0  0  0
   -3.8775   -0.1349    1.0007 H   0  0  0  0  0  0  0  0  0  0  0  0
   -2.3932   -0.0248    2.0090 H   0  0  0  0  0  0  0  0  0  0  0  0
   -2.3340    0.4709    0.2947 H   0  0  0  0  0  0  0  0  0  0  0  0
   -3.2107   -3.0284    3.4678 H   0  0  0  0  0  0  0  0  0  0  0  0
   -1.3814   -4.8688   -1.1006 H   0  0  0  0  0  0  0  0  0  0  0  0
   -1.0705   -6.5192   -0.4457 H   0  0  0  0  0  0  0  0  0  0  0  0
    0.7862   -4.7517   -2.1624 H   0  0  0  0  0  0  0  0  0  0  0  0
   -0.0640   -6.2350   -2.6962 H   0  0  0  0  0  0  0  0  0  0  0  0
    1.4105   -7.6689   -1.5643 H   0  0  0  0  0  0  0  0  0  0  0  0
    2.5065   -6.3241   -1.9982 H   0  0  0  0  0  0  0  0  0  0  0  0
    1.5124   -7.2461    0.6893 H   0  0  0  0  0  0  0  0  0  0  0  0
    3.0815   -6.5157    0.2579 H   0  0  0  0  0  0  0  0  0  0  0  0
    1.6941   -5.1287    1.7981 H   0  0  0  0  0  0  0  0  0  0  0  0
   -6.6676   -5.8408   -3.4158 H   0  0  0  0  0  0  0  0  0  0  0  0
   -8.2300   -5.0777   -2.9723 H   0  0  0  0  0  0  0  0  0  0  0  0
   -7.1841   -5.8642   -1.6977 H   0  0  0  0  0  0  0  0  0  0  0  0
    5.6550    2.2190    1.5221 H   0  0  0  0  0  0  0  0  0  0  0  0
    6.9321    1.6200    2.6090 H   0  0  0  0  0  0  0  0  0  0  0  0
    6.8359    1.1380   -0.4296 H   0  0  0  0  0  0  0  0  0  0  0  0
    7.8135    2.3942    0.3820 H   0  0  0  0  0  0  0  0  0  0  0  0
    8.7929   -0.0177   -0.2854 H   0  0  0  0  0  0  0  0  0  0  0  0
   10.9447    0.9830   -0.1719 H   0  0  0  0  0  0  0  0  0  0  0  0
   10.9275   -0.5170    0.8489 H   0  0  0  0  0  0  0  0  0  0  0  0
   12.9422    0.8858    1.2842 H   0  0  0  0  0  0  0  0  0  0  0  0
   11.8856    2.2710    1.7290 H   0  0  0  0  0  0  0  0  0  0  0  0
   12.1701   -0.2486    3.0295 H   0  0  0  0  0  0  0  0  0  0  0  0
    8.1852   -0.5953    2.6648 H   0  0  0  0  0  0  0  0  0  0  0  0
    6.3954   -1.3881    0.2921 H   0  0  0  0  0  0  0  0  0  0  0  0
    6.2790   -2.0700    1.9485 H   0  0  0  0  0  0  0  0  0  0  0  0
    8.3515   -3.0503    2.9615 H   0  0  0  0  0  0  0  0  0  0  0  0
    9.7417   -3.6570    2.0016 H   0  0  0  0  0  0  0  0  0  0  0  0
    9.9404   -2.1459    2.9489 H   0  0  0  0  0  0  0  0  0  0  0  0
  1  2  1  0
  2  3  1  0
  3  4  1  0
  3  5  1  0
  5  6  1  0
  6  7  1  0
  7  8  2  0
  7  9  1  0
  9 10  1  0
  9 11  1  0
 11 12  2  0
 12 13  1  0
 12 14  1  0
 14 15  1  0
 14 16  1  0
 16 17  1  0
 17 18  1  0
 16 19  1  0
 19 20  2  0
 19 21  1  0
 21 22  1  0
 21 23  1  0
 23 24  1  0
 24 25  1  0
 24 26  1  0
 26 27  2  0
 27 28  1  0
 28 29  2  0
 29 30  1  0
 30 31  2  0
 31 32  1  0
 31 33  1  0
 33 34  1  0
 34 35  1  0
 35 36  1  0
 36 37  1  0
 37 38  1  0
 38 39  1  0
 38 40  1  0
 40 41  1  1
 40 42  1  0
 40 43  1  0
 43 44  2  0
 43 45  1  0
 45 46  2  0
 45 47  1  0
 47 48  1  0
 48 49  1  0
 49 50  1  0
 50 51  1  0
 51 52  1  0
 52 53  1  0
 53 54  2  0
 53 55  1  0
 33 56  1  0
 56 57  1  0
  1 58  1  0
 58 59  1  0
 59 60  1  0
 60 61  1  0
 61 62  1  0
 62 63  1  0
 63 64  1  0
 60 65  1  0
 65 66  1  0
 65 67  1  0
 67 68  1  0
 66  1  1  0
 55  5  1  0
 42 35  1  0
 52 47  1  0
  1 69  1  1
  2 70  1  0
  2 71  1  0
  3 72  1  1
  4 73  1  0
  4 74  1  0
  4 75  1  0
  5 76  1  6
  6 77  1  0
  6 78  1  0
  9 79  1  1
 10 80  1  0
 10 81  1  0
 10 82  1  0
 11 83  1  0
 13 84  1  0
 13 85  1  0
 13 86  1  0
 14 87  1  6
 15 88  1  0
 16 89  1  1
 18 90  1  0
 18 91  1  0
 18 92  1  0
 21 93  1  6
 22 94  1  0
 22 95  1  0
 22 96  1  0
 23 97  1  0
 23 98  1  0
 24 99  1  6
 25100  1  0
 25101  1  0
 25102  1  0
 26103  1  0
 27104  1  0
 28105  1  0
 29106  1  0
 30107  1  0
 32108  1  0
 32109  1  0
 32110  1  0
 33111  1  1
 34112  1  0
 34113  1  0
 35114  1  1
 36115  1  0
 36116  1  0
 37117  1  0
 37118  1  0
 38119  1  6
 39120  1  0
 39121  1  0
 39122  1  0
 41123  1  0
 48124  1  0
 48125  1  0
 49126  1  0
 49127  1  0
 50128  1  0
 50129  1  0
 51130  1  0
 51131  1  0
 52132  1  1
 57133  1  0
 57134  1  0
 57135  1  0
 58136  1  0
 58137  1  0
 59138  1  0
 59139  1  0
 60140  1  6
 62141  1  0
 62142  1  0
 63143  1  0
 63144  1  0
 64145  1  0
 65146  1  1
 66147  1  0
 66148  1  0
 68149  1  0
 68150  1  0
 68151  1  0
M  END
$$$$
