
     RDKit          3D

 32 34  0  0  0  0  0  0  0  0999 V2000
   -4.0769    1.8317   -0.0929 O   0  0  0  0  0  0  0  0  0  0  0  0
   -4.3228    0.5911   -0.6761 C   0  0  0  0  0  0  0  0  0  0  0  0
   -5.3074    0.4451   -1.4484 O   0  0  0  0  0  0  0  0  0  0  0  0
   -3.4258   -0.5753   -0.3783 C   0  0  0  0  0  0  0  0  0  0  0  0
   -3.4007   -0.9253    1.1422 C   0  0  0  0  0  0  0  0  0  0  0  0
   -1.9530   -0.6735    1.6420 C   0  0  0  0  0  0  0  0  0  0  0  0
   -1.2518   -0.2819    0.4436 N   0  0  0  0  0  0  0  0  0  0  0  0
   -2.0117   -0.2278   -0.6253 C   0  0  0  0  0  0  0  0  0  0  0  0
   -1.2837    0.1404   -1.7363 C   0  0  0  0  0  0  0  0  0  0  0  0
    0.0187    0.3189   -1.2683 C   0  0  0  0  0  0  0  0  0  0  0  0
    0.0069    0.0361    0.0988 C   0  0  0  0  0  0  0  0  0  0  0  0
    1.1435    0.1225    1.0397 C   0  0  0  0  0  0  0  0  0  0  0  0
    0.9047    0.2326    2.2725 O   0  0  0  0  0  0  0  0  0  0  0  0
    2.5514    0.1012    0.5811 C   0  0  0  0  0  0  0  0  0  0  0  0
    2.9533   -0.7171   -0.4908 C   0  0  0  0  0  0  0  0  0  0  0  0
    4.2901   -0.7398   -0.9001 C   0  0  0  0  0  0  0  0  0  0  0  0
    5.2392    0.0430   -0.2385 C   0  0  0  0  0  0  0  0  0  0  0  0
    4.8543    0.8450    0.8386 C   0  0  0  0  0  0  0  0  0  0  0  0
    3.5186    0.8706    1.2519 C   0  0  0  0  0  0  0  0  0  0  0  0
   -4.6780    2.6241   -0.2846 H   0  0  0  0  0  0  0  0  0  0  0  0
   -3.7083   -1.4639   -0.9846 H   0  0  0  0  0  0  0  0  0  0  0  0
   -3.6635   -1.9965    1.2830 H   0  0  0  0  0  0  0  0  0  0  0  0
   -4.1212   -0.3122    1.7276 H   0  0  0  0  0  0  0  0  0  0  0  0
   -1.9268    0.1523    2.3851 H   0  0  0  0  0  0  0  0  0  0  0  0
   -1.5051   -1.5985    2.0646 H   0  0  0  0  0  0  0  0  0  0  0  0
   -1.6454    0.2734   -2.7469 H   0  0  0  0  0  0  0  0  0  0  0  0
    0.8665    0.6382   -1.8594 H   0  0  0  0  0  0  0  0  0  0  0  0
    2.2400   -1.3537   -0.9987 H   0  0  0  0  0  0  0  0  0  0  0  0
    4.5917   -1.3705   -1.7264 H   0  0  0  0  0  0  0  0  0  0  0  0
    6.2737    0.0232   -0.5560 H   0  0  0  0  0  0  0  0  0  0  0  0
    5.5914    1.4466    1.3545 H   0  0  0  0  0  0  0  0  0  0  0  0
    3.2382    1.5000    2.0877 H   0  0  0  0  0  0  0  0  0  0  0  0
  1  2  1  0
  2  3  2  0
  2  4  1  0
  4  5  1  0
  5  6  1  0
  6  7  1  0
  7  8  1  0
  8  9  2  0
  9 10  1  0
 10 11  2  0
 11 12  1  0
 12 13  2  0
 12 14  1  0
 14 15  2  0
 15 16  1  0
 16 17  2  0
 17 18  1  0
 18 19  2  0
  8  4  1  0
 19 14  1  0
 11  7  1  0
  1 20  1  0
  4 21  1  0
  5 22  1  0
  5 23  1  0
  6 24  1  0
  6 25  1  0
  9 26  1  0
 10 27  1  0
 15 28  1  0
 16 29  1  0
 17 30  1  0
 18 31  1  0
 19 32  1  0
M  END
$$$$
