
     RDKit          3D

 16 15  0  0  0  0  0  0  0  0999 V2000
   -2.2797   -0.9024    0.7620 C   0  0  0  0  0  0  0  0  0  0  0  0
   -1.7472    0.5240    0.8349 C   0  0  0  0  0  0  0  0  0  0  0  0
   -0.3222    0.5336    0.7730 O   0  0  0  0  0  0  0  0  0  0  0  0
    0.3998    0.3302   -0.4089 C   0  0  0  0  0  0  0  0  0  0  0  0
   -0.1995    0.1729   -1.5080 O   0  0  0  0  0  0  0  0  0  0  0  0
    1.8687    0.3084   -0.3624 C   0  0  0  0  0  0  0  0  0  0  0  0
    2.6743    0.0958   -1.6058 C   0  0  0  0  0  0  0  0  0  0  0  0
    2.4577    0.4703    0.7396 O   0  0  0  0  0  0  0  0  0  0  0  0
   -3.3850   -0.8940    0.8681 H   0  0  0  0  0  0  0  0  0  0  0  0
   -1.8439   -1.5117    1.5818 H   0  0  0  0  0  0  0  0  0  0  0  0
   -2.0192   -1.3642   -0.2131 H   0  0  0  0  0  0  0  0  0  0  0  0
   -2.0619    0.9728    1.8006 H   0  0  0  0  0  0  0  0  0  0  0  0
   -2.1753    1.1389    0.0135 H   0  0  0  0  0  0  0  0  0  0  0  0
    2.4549    0.9022   -2.3366 H   0  0  0  0  0  0  0  0  0  0  0  0
    2.4178   -0.8865   -2.0549 H   0  0  0  0  0  0  0  0  0  0  0  0
    3.7607    0.1097   -1.3741 H   0  0  0  0  0  0  0  0  0  0  0  0
  1  2  1  0
  2  3  1  0
  3  4  1  0
  4  5  2  0
  4  6  1  0
  6  7  1  0
  6  8  2  0
  1  9  1  0
  1 10  1  0
  1 11  1  0
  2 12  1  0
  2 13  1  0
  7 14  1  0
  7 15  1  0
  7 16  1  0
M  END
$$$$
