
     RDKit          3D

 55 59  0  0  0  0  0  0  0  0999 V2000
   -8.1822    1.7594    2.0166 C   0  0  0  0  0  0  0  0  0  0  0  0
   -6.8797    1.2452    1.5673 N   0  0  0  0  0  0  0  0  0  0  0  0
   -6.2484    2.1894    0.6174 C   0  0  0  0  0  0  0  0  0  0  0  0
   -4.7167    2.0143    0.4971 C   0  0  0  0  0  0  0  0  0  0  0  0
   -4.2654    0.7018    0.9841 N   0  0  0  0  0  0  0  0  0  0  0  0
   -4.8107    0.1564    2.2362 C   0  0  0  0  0  0  0  0  0  0  0  0
   -6.0058    0.9755    2.7184 C   0  0  0  0  0  0  0  0  0  0  0  0
   -3.1033    0.0797    0.3980 C   0  0  0  0  0  0  0  0  0  0  0  0
   -1.9810    0.8487    0.0466 C   0  0  0  0  0  0  0  0  0  0  0  0
   -0.8538    0.2445   -0.5165 C   0  0  0  0  0  0  0  0  0  0  0  0
   -0.8250   -1.1426   -0.7433 C   0  0  0  0  0  0  0  0  0  0  0  0
   -1.9489   -1.9107   -0.3932 C   0  0  0  0  0  0  0  0  0  0  0  0
   -3.0751   -1.3061    0.1720 C   0  0  0  0  0  0  0  0  0  0  0  0
    0.3727   -1.7850   -1.3416 C   0  0  0  0  0  0  0  0  0  0  0  0
    1.6722   -1.3713   -0.9669 C   0  0  0  0  0  0  0  0  0  0  0  0
    2.7532   -2.0134   -1.5617 C   0  0  0  0  0  0  0  0  0  0  0  0
    2.5677   -3.0083   -2.4773 C   0  0  0  0  0  0  0  0  0  0  0  0
    3.7359   -3.4861   -2.9381 N   0  0  0  0  0  0  0  0  0  0  0  0
    4.6988   -2.7797   -2.3004 C   0  0  0  0  0  0  0  0  0  0  0  0
    4.1170   -1.8605   -1.4261 C   0  0  0  0  0  0  0  0  0  0  0  0
    4.7830   -0.8833   -0.6116 N   0  0  0  0  0  0  0  0  0  0  0  0
    6.1778   -0.9484   -0.2721 C   0  0  0  0  0  0  0  0  0  0  0  0
    6.7842   -2.0530   -0.3253 O   0  0  0  0  0  0  0  0  0  0  0  0
    6.9055    0.2590    0.1886 C   0  0  0  0  0  0  0  0  0  0  0  0
    8.1103    0.1358    0.9037 C   0  0  0  0  0  0  0  0  0  0  0  0
    8.7794    1.2439    1.3203 N   0  0  0  0  0  0  0  0  0  0  0  0
    8.3212    2.4962    1.0606 C   0  0  0  0  0  0  0  0  0  0  0  0
    7.1367    2.6715    0.3455 C   0  0  0  0  0  0  0  0  0  0  0  0
    6.4291    1.5512   -0.0937 C   0  0  0  0  0  0  0  0  0  0  0  0
    1.3334   -3.4189   -2.8559 N   0  0  0  0  0  0  0  0  0  0  0  0
    0.2341   -2.8258   -2.3015 C   0  0  0  0  0  0  0  0  0  0  0  0
   -8.7051    0.9903    2.6245 H   0  0  0  0  0  0  0  0  0  0  0  0
   -8.0620    2.6832    2.6257 H   0  0  0  0  0  0  0  0  0  0  0  0
   -8.8284    1.9834    1.1403 H   0  0  0  0  0  0  0  0  0  0  0  0
   -6.4531    3.2469    0.9038 H   0  0  0  0  0  0  0  0  0  0  0  0
   -6.7028    2.0265   -0.3841 H   0  0  0  0  0  0  0  0  0  0  0  0
   -4.2112    2.8044    1.0943 H   0  0  0  0  0  0  0  0  0  0  0  0
   -4.4217    2.1556   -0.5663 H   0  0  0  0  0  0  0  0  0  0  0  0
   -4.0223    0.1486    3.0195 H   0  0  0  0  0  0  0  0  0  0  0  0
   -5.1541   -0.8864    2.0695 H   0  0  0  0  0  0  0  0  0  0  0  0
   -6.5442    0.3857    3.4938 H   0  0  0  0  0  0  0  0  0  0  0  0
   -5.6583    1.9265    3.1841 H   0  0  0  0  0  0  0  0  0  0  0  0
   -1.9715    1.9173    0.2187 H   0  0  0  0  0  0  0  0  0  0  0  0
   -0.0100    0.8660   -0.7887 H   0  0  0  0  0  0  0  0  0  0  0  0
   -1.9526   -2.9832   -0.5422 H   0  0  0  0  0  0  0  0  0  0  0  0
   -3.9299   -1.9217    0.4170 H   0  0  0  0  0  0  0  0  0  0  0  0
    1.8297   -0.5962   -0.2282 H   0  0  0  0  0  0  0  0  0  0  0  0
    3.8744   -4.2345   -3.6528 H   0  0  0  0  0  0  0  0  0  0  0  0
    5.7562   -2.9095   -2.4860 H   0  0  0  0  0  0  0  0  0  0  0  0
    4.2049   -0.1184   -0.1987 H   0  0  0  0  0  0  0  0  0  0  0  0
    8.5160   -0.8396    1.1394 H   0  0  0  0  0  0  0  0  0  0  0  0
    8.8795    3.3561    1.4060 H   0  0  0  0  0  0  0  0  0  0  0  0
    6.7728    3.6675    0.1281 H   0  0  0  0  0  0  0  0  0  0  0  0
    5.5252    1.7014   -0.6688 H   0  0  0  0  0  0  0  0  0  0  0  0
   -0.7477   -3.1496   -2.6206 H   0  0  0  0  0  0  0  0  0  0  0  0
  1  2  1  0
  2  3  1  0
  3  4  1  0
  4  5  1  0
  5  6  1  0
  6  7  1  0
  5  8  1  0
  8  9  2  0
  9 10  1  0
 10 11  2  0
 11 12  1  0
 12 13  2  0
 11 14  1  0
 14 15  2  0
 15 16  1  0
 16 17  2  0
 17 18  1  0
 18 19  1  0
 19 20  2  0
 20 21  1  0
 21 22  1  0
 22 23  2  0
 22 24  1  0
 24 25  2  0
 25 26  1  0
 26 27  2  0
 27 28  1  0
 28 29  2  0
 17 30  1  0
 30 31  2  0
  7  2  1  0
 13  8  1  0
 31 14  1  0
 20 16  1  0
 29 24  1  0
  1 32  1  0
  1 33  1  0
  1 34  1  0
  3 35  1  0
  3 36  1  0
  4 37  1  0
  4 38  1  0
  6 39  1  0
  6 40  1  0
  7 41  1  0
  7 42  1  0
  9 43  1  0
 10 44  1  0
 12 45  1  0
 13 46  1  0
 15 47  1  0
 18 48  1  0
 19 49  1  0
 21 50  1  0
 25 51  1  0
 27 52  1  0
 28 53  1  0
 29 54  1  0
 31 55  1  0
M  END
$$$$
