
     RDKit          3D

 60 63  0  0  0  0  0  0  0  0999 V2000
    0.6704   -0.1028   -0.6795 C   0  0  2  0  0  0  0  0  0  0  0  0
    1.9307    0.2252    0.1389 C   0  0  0  0  0  0  0  0  0  0  0  0
    2.8994    1.1356   -0.5941 C   0  0  0  0  0  0  0  0  0  0  0  0
    2.4219    2.1079   -1.5142 C   0  0  0  0  0  0  0  0  0  0  0  0
    3.3380    3.0479   -2.0608 C   0  0  0  0  0  0  0  0  0  0  0  0
    2.9409    4.1303   -2.8496 O   0  0  0  0  0  0  0  0  0  0  0  0
    4.7012    2.9313   -1.7839 C   0  0  0  0  0  0  0  0  0  0  0  0
    5.1688    1.9568   -0.9100 C   0  0  0  0  0  0  0  0  0  0  0  0
    4.2778    1.0809   -0.2843 C   0  0  0  0  0  0  0  0  0  0  0  0
    4.7814    0.1380    0.6756 N   0  0  0  0  0  0  0  0  0  0  0  0
    5.7332   -0.8824    0.2407 C   0  0  0  0  0  0  0  0  0  0  0  0
    4.7103    0.4716    2.0969 C   0  0  0  0  0  0  0  0  0  0  0  0
    0.9916    2.0574   -1.9289 C   0  0  0  0  0  0  0  0  0  0  0  0
    0.6113    2.6242   -2.9883 O   0  0  0  0  0  0  0  0  0  0  0  0
    0.0527    1.1685   -1.2077 C   0  0  0  0  0  0  0  0  0  0  0  0
   -1.2844    1.4030   -1.1691 C   0  0  0  0  0  0  0  0  0  0  0  0
   -1.8088    2.6387   -1.5696 O   0  0  0  0  0  0  0  0  0  0  0  0
   -2.2938    0.3779   -0.6458 C   0  0  2  0  0  0  0  0  0  0  0  0
   -3.3576    0.3112   -1.5656 O   0  0  0  0  0  0  0  0  0  0  0  0
   -2.8344    0.7998    0.7041 C   0  0  0  0  0  0  0  0  0  0  0  0
   -2.6765    1.9824    1.1170 O   0  0  0  0  0  0  0  0  0  0  0  0
   -3.6552   -0.1472    1.4827 C   0  0  0  0  0  0  0  0  0  0  0  0
   -4.5898    0.4008    2.4883 C   0  0  0  0  0  0  0  0  0  0  0  0
   -4.1051    1.1952    3.5710 N   0  0  0  0  0  0  0  0  0  0  0  0
   -5.8268    0.1855    2.3798 O   0  0  0  0  0  0  0  0  0  0  0  0
   -3.5757   -1.4756    1.2440 C   0  0  0  0  0  0  0  0  0  0  0  0
   -4.3575   -2.3919    1.9581 O   0  0  0  0  0  0  0  0  0  0  0  0
   -2.5869   -2.0745    0.2600 C   0  0  1  0  0  0  0  0  0  0  0  0
   -3.2713   -3.0741   -0.6033 N   0  0  0  0  0  0  0  0  0  0  0  0
   -4.1604   -2.5048   -1.6263 C   0  0  0  0  0  0  0  0  0  0  0  0
   -2.3469   -4.0587   -1.1916 C   0  0  0  0  0  0  0  0  0  0  0  0
   -1.6758   -1.0432   -0.5161 C   0  0  2  0  0  0  0  0  0  0  0  0
   -0.2991   -0.9400    0.1655 C   0  0  0  0  0  0  0  0  0  0  0  0
    0.9746   -0.7160   -1.5581 H   0  0  0  0  0  0  0  0  0  0  0  0
    2.4255   -0.7354    0.4002 H   0  0  0  0  0  0  0  0  0  0  0  0
    1.6411    0.7303    1.0863 H   0  0  0  0  0  0  0  0  0  0  0  0
    1.9951    4.4839   -2.8822 H   0  0  0  0  0  0  0  0  0  0  0  0
    5.4019    3.6320   -2.2206 H   0  0  0  0  0  0  0  0  0  0  0  0
    6.2268    1.9093   -0.6848 H   0  0  0  0  0  0  0  0  0  0  0  0
    6.7677   -0.4846    0.3071 H   0  0  0  0  0  0  0  0  0  0  0  0
    5.5242   -1.1843   -0.8081 H   0  0  0  0  0  0  0  0  0  0  0  0
    5.6460   -1.7835    0.8839 H   0  0  0  0  0  0  0  0  0  0  0  0
    4.5862   -0.4535    2.6984 H   0  0  0  0  0  0  0  0  0  0  0  0
    5.6432    0.9882    2.4062 H   0  0  0  0  0  0  0  0  0  0  0  0
    3.8459    1.1385    2.3023 H   0  0  0  0  0  0  0  0  0  0  0  0
   -1.2468    3.4663   -1.7211 H   0  0  0  0  0  0  0  0  0  0  0  0
   -3.8682    1.1631   -1.5280 H   0  0  0  0  0  0  0  0  0  0  0  0
   -3.0808    1.3455    3.7068 H   0  0  0  0  0  0  0  0  0  0  0  0
   -4.7716    1.6063    4.2616 H   0  0  0  0  0  0  0  0  0  0  0  0
   -4.9857   -2.1378    2.7091 H   0  0  0  0  0  0  0  0  0  0  0  0
   -1.9234   -2.6595    0.9360 H   0  0  0  0  0  0  0  0  0  0  0  0
   -3.5835   -2.0509   -2.4598 H   0  0  0  0  0  0  0  0  0  0  0  0
   -4.8015   -3.3075   -2.0485 H   0  0  0  0  0  0  0  0  0  0  0  0
   -4.8427   -1.7531   -1.1771 H   0  0  0  0  0  0  0  0  0  0  0  0
   -1.7042   -4.5104   -0.4062 H   0  0  0  0  0  0  0  0  0  0  0  0
   -1.7017   -3.6041   -1.9723 H   0  0  0  0  0  0  0  0  0  0  0  0
   -2.9253   -4.8872   -1.6537 H   0  0  0  0  0  0  0  0  0  0  0  0
   -1.4893   -1.4189   -1.5440 H   0  0  0  0  0  0  0  0  0  0  0  0
   -0.4185   -0.4968    1.1795 H   0  0  0  0  0  0  0  0  0  0  0  0
    0.1410   -1.9548    0.2876 H   0  0  0  0  0  0  0  0  0  0  0  0
  1  2  1  0
  2  3  1  0
  3  4  2  0
  4  5  1  0
  5  6  1  0
  5  7  2  0
  7  8  1  0
  8  9  2  0
  9 10  1  0
 10 11  1  0
 10 12  1  0
  4 13  1  0
 13 14  2  0
 13 15  1  0
 15 16  2  0
 16 17  1  0
 16 18  1  0
 18 19  1  6
 18 20  1  0
 20 21  2  0
 20 22  1  0
 22 23  1  0
 23 24  1  0
 23 25  2  0
 22 26  2  0
 26 27  1  0
 26 28  1  0
 28 29  1  0
 29 30  1  0
 29 31  1  0
 28 32  1  0
 32 33  1  0
 15  1  1  0
 32 18  1  0
 33  1  1  0
  9  3  1  0
  1 34  1  6
  2 35  1  0
  2 36  1  0
  6 37  1  0
  7 38  1  0
  8 39  1  0
 11 40  1  0
 11 41  1  0
 11 42  1  0
 12 43  1  0
 12 44  1  0
 12 45  1  0
 17 46  1  0
 19 47  1  0
 24 48  1  0
 24 49  1  0
 27 50  1  0
 28 51  1  1
 30 52  1  0
 30 53  1  0
 30 54  1  0
 31 55  1  0
 31 56  1  0
 31 57  1  0
 32 58  1  6
 33 59  1  0
 33 60  1  0
M  END
$$$$
