
     RDKit          3D

 33 34  0  0  0  0  0  0  0  0999 V2000
   -2.8786   -2.7338    0.9572 C   0  0  0  0  0  0  0  0  0  0  0  0
   -1.3377   -1.9026    1.2712 S   0  0  0  0  0  6  0  0  0  0  0  0
   -0.3101   -2.9082    1.7077 O   0  0  0  0  0  0  0  0  0  0  0  0
   -1.5159   -0.8895    2.3672 O   0  0  0  0  0  0  0  0  0  0  0  0
   -0.7836   -1.1221   -0.1747 N   0  0  0  0  0  0  0  0  0  0  0  0
   -0.9944    0.2746   -0.4363 C   0  0  0  0  0  0  0  0  0  0  0  0
   -0.0089    1.0319   -1.1076 C   0  0  0  0  0  0  0  0  0  0  0  0
    1.2393    0.4898   -1.4444 O   0  0  0  0  0  0  0  0  0  0  0  0
    2.0944   -0.1689   -0.5469 C   0  0  0  0  0  0  0  0  0  0  0  0
    3.1037   -0.9915   -1.0626 C   0  0  0  0  0  0  0  0  0  0  0  0
    3.9725   -1.6697   -0.2020 C   0  0  0  0  0  0  0  0  0  0  0  0
    3.8436   -1.5227    1.1818 C   0  0  0  0  0  0  0  0  0  0  0  0
    2.8503   -0.6915    1.7063 C   0  0  0  0  0  0  0  0  0  0  0  0
    1.9814   -0.0104    0.8484 C   0  0  0  0  0  0  0  0  0  0  0  0
   -0.2741    2.3586   -1.4660 C   0  0  0  0  0  0  0  0  0  0  0  0
   -1.4935    2.9687   -1.1239 C   0  0  0  0  0  0  0  0  0  0  0  0
   -2.4550    2.2198   -0.4278 C   0  0  0  0  0  0  0  0  0  0  0  0
   -2.2108    0.8861   -0.0941 C   0  0  0  0  0  0  0  0  0  0  0  0
   -1.7550    4.3391   -1.4789 N   0  0  0  0  0  4  0  0  0  0  0  0
   -2.9490    4.9337   -1.1399 O   0  0  0  0  0  1  0  0  0  0  0  0
   -0.9043    5.0101   -2.0994 O   0  0  0  0  0  0  0  0  0  0  0  0
   -3.2163   -3.2499    1.8795 H   0  0  0  0  0  0  0  0  0  0  0  0
   -2.7374   -3.4803    0.1487 H   0  0  0  0  0  0  0  0  0  0  0  0
   -3.6479   -1.9986    0.6460 H   0  0  0  0  0  0  0  0  0  0  0  0
   -0.1614   -1.6746   -0.8052 H   0  0  0  0  0  0  0  0  0  0  0  0
    3.2080   -1.1126   -2.1333 H   0  0  0  0  0  0  0  0  0  0  0  0
    4.7453   -2.3097   -0.6078 H   0  0  0  0  0  0  0  0  0  0  0  0
    4.5160   -2.0487    1.8470 H   0  0  0  0  0  0  0  0  0  0  0  0
    2.7558   -0.5719    2.7778 H   0  0  0  0  0  0  0  0  0  0  0  0
    1.2291    0.6407    1.2734 H   0  0  0  0  0  0  0  0  0  0  0  0
    0.4870    2.9177   -1.9954 H   0  0  0  0  0  0  0  0  0  0  0  0
   -3.4050    2.6601   -0.1539 H   0  0  0  0  0  0  0  0  0  0  0  0
   -2.9876    0.3261    0.4072 H   0  0  0  0  0  0  0  0  0  0  0  0
  1  2  1  0
  2  3  2  0
  2  4  2  0
  2  5  1  0
  5  6  1  0
  6  7  2  0
  7  8  1  0
  8  9  1  0
  9 10  2  0
 10 11  1  0
 11 12  2  0
 12 13  1  0
 13 14  2  0
  7 15  1  0
 15 16  2  0
 16 17  1  0
 17 18  2  0
 16 19  1  0
 19 20  1  0
 19 21  2  0
 18  6  1  0
 14  9  1  0
  1 22  1  0
  1 23  1  0
  1 24  1  0
  5 25  1  0
 10 26  1  0
 11 27  1  0
 12 28  1  0
 13 29  1  0
 14 30  1  0
 15 31  1  0
 17 32  1  0
 18 33  1  0
M  CHG  2  19   1  20  -1
M  END
$$$$
