
     RDKit          3D

 51 53  0  0  0  0  0  0  0  0999 V2000
   -2.7849    1.0493    1.2470 C   0  0  1  0  0  0  0  0  0  0  0  0
   -3.5959    2.3239    0.9711 C   0  0  0  0  0  0  0  0  0  0  0  0
   -5.0950    2.0125    0.8628 C   0  0  0  0  0  0  0  0  0  0  0  0
   -5.3619    0.9389   -0.2006 C   0  0  0  0  0  0  0  0  0  0  0  0
   -4.5402   -0.3272    0.0984 C   0  0  2  0  0  0  0  0  0  0  0  0
   -3.1138    0.0348    0.2259 N   0  0  0  0  0  0  0  0  0  0  0  0
   -2.1000   -0.5324   -0.6303 C   0  0  0  0  0  0  0  0  0  0  0  0
   -2.1814   -0.3707   -1.8779 O   0  0  0  0  0  0  0  0  0  0  0  0
   -0.9767   -1.3755   -0.0694 C   0  0  2  0  0  0  0  0  0  0  0  0
   -0.9328   -1.3617    1.4737 C   0  0  0  0  0  0  0  0  0  0  0  0
   -0.4096   -0.0502    2.0909 C   0  0  0  0  0  0  0  0  0  0  0  0
   -1.0011    1.4821    1.2746 S   0  0  0  0  0  0  0  0  0  0  0  0
    0.3132   -0.9553   -0.6280 N   0  0  0  0  0  0  0  0  0  0  0  0
    1.4721   -1.8038   -0.6021 C   0  0  0  0  0  0  0  0  0  0  0  0
    1.3656   -3.0055   -0.2345 O   0  0  0  0  0  0  0  0  0  0  0  0
    2.8230   -1.2807   -1.0115 C   0  0  1  0  0  0  0  0  0  0  0  0
    2.8263   -0.8925   -2.7987 S   0  0  0  0  0  0  0  0  0  0  0  0
    3.2315   -0.0679   -0.1540 C   0  0  0  0  0  0  0  0  0  0  0  0
    4.6636    0.3322   -0.4026 C   0  0  0  0  0  0  0  0  0  0  0  0
    4.9664    1.3996   -1.2653 C   0  0  0  0  0  0  0  0  0  0  0  0
    6.2975    1.7514   -1.5102 C   0  0  0  0  0  0  0  0  0  0  0  0
    7.3340    1.0393   -0.9005 C   0  0  0  0  0  0  0  0  0  0  0  0
    7.0413   -0.0273   -0.0463 C   0  0  0  0  0  0  0  0  0  0  0  0
    5.7118   -0.3827    0.2012 C   0  0  0  0  0  0  0  0  0  0  0  0
   -4.7912   -1.4162   -0.9171 C   0  0  0  0  0  0  0  0  0  0  0  0
   -4.6880   -2.7484   -0.5292 O   0  0  0  0  0  0  0  0  0  0  0  0
   -5.0445   -1.1335   -2.1198 O   0  0  0  0  0  0  0  0  0  0  0  0
   -3.0686    0.6635    2.2512 H   0  0  0  0  0  0  0  0  0  0  0  0
   -3.4343    3.0550    1.7927 H   0  0  0  0  0  0  0  0  0  0  0  0
   -3.2508    2.7881    0.0208 H   0  0  0  0  0  0  0  0  0  0  0  0
   -5.4756    1.6650    1.8485 H   0  0  0  0  0  0  0  0  0  0  0  0
   -5.6438    2.9404    0.5931 H   0  0  0  0  0  0  0  0  0  0  0  0
   -6.4463    0.6931   -0.2067 H   0  0  0  0  0  0  0  0  0  0  0  0
   -5.0882    1.3433   -1.2004 H   0  0  0  0  0  0  0  0  0  0  0  0
   -4.8824   -0.7257    1.0798 H   0  0  0  0  0  0  0  0  0  0  0  0
   -1.1855   -2.4186   -0.3938 H   0  0  0  0  0  0  0  0  0  0  0  0
   -1.9407   -1.5940    1.8812 H   0  0  0  0  0  0  0  0  0  0  0  0
   -0.2743   -2.1877    1.8193 H   0  0  0  0  0  0  0  0  0  0  0  0
    0.6998   -0.0461    2.0403 H   0  0  0  0  0  0  0  0  0  0  0  0
   -0.6915   -0.0155    3.1645 H   0  0  0  0  0  0  0  0  0  0  0  0
    0.4098    0.0182   -0.9942 H   0  0  0  0  0  0  0  0  0  0  0  0
    3.5708   -2.0893   -0.8532 H   0  0  0  0  0  0  0  0  0  0  0  0
    2.0247    0.2575   -2.6823 H   0  0  0  0  0  0  0  0  0  0  0  0
    2.5559    0.7928   -0.3491 H   0  0  0  0  0  0  0  0  0  0  0  0
    3.1160   -0.3246    0.9224 H   0  0  0  0  0  0  0  0  0  0  0  0
    4.1736    1.9562   -1.7496 H   0  0  0  0  0  0  0  0  0  0  0  0
    6.5254    2.5749   -2.1745 H   0  0  0  0  0  0  0  0  0  0  0  0
    8.3636    1.3126   -1.0917 H   0  0  0  0  0  0  0  0  0  0  0  0
    7.8449   -0.5803    0.4227 H   0  0  0  0  0  0  0  0  0  0  0  0
    5.4981   -1.2147    0.8608 H   0  0  0  0  0  0  0  0  0  0  0  0
   -4.8297   -3.4965   -1.1972 H   0  0  0  0  0  0  0  0  0  0  0  0
  1  2  1  0
  2  3  1  0
  3  4  1  0
  4  5  1  0
  5  6  1  0
  6  7  1  0
  7  8  2  0
  7  9  1  0
  9 10  1  0
 10 11  1  0
 11 12  1  0
  9 13  1  0
 13 14  1  0
 14 15  2  0
 14 16  1  0
 16 17  1  0
 16 18  1  0
 18 19  1  0
 19 20  2  0
 20 21  1  0
 21 22  2  0
 22 23  1  0
 23 24  2  0
  5 25  1  0
 25 26  1  0
 25 27  2  0
  6  1  1  0
 24 19  1  0
 12  1  1  0
  1 28  1  1
  2 29  1  0
  2 30  1  0
  3 31  1  0
  3 32  1  0
  4 33  1  0
  4 34  1  0
  5 35  1  1
  9 36  1  6
 10 37  1  0
 10 38  1  0
 11 39  1  0
 11 40  1  0
 13 41  1  0
 16 42  1  6
 17 43  1  0
 18 44  1  0
 18 45  1  0
 20 46  1  0
 21 47  1  0
 22 48  1  0
 23 49  1  0
 24 50  1  0
 26 51  1  0
M  END
$$$$
