
     RDKit          3D

 54 56  0  0  0  0  0  0  0  0999 V2000
    3.4667    3.0830    0.8153 C   0  0  0  0  0  0  0  0  0  0  0  0
    4.1180    3.0880    2.1938 C   0  0  0  0  0  0  0  0  0  0  0  0
    4.5210    1.7700    2.5573 O   0  0  0  0  0  0  0  0  0  0  0  0
    5.6339    1.1273    2.0039 C   0  0  0  0  0  0  0  0  0  0  0  0
    6.4657    1.7661    1.3036 O   0  0  0  0  0  0  0  0  0  0  0  0
    5.8518   -0.3290    2.2690 C   0  0  0  0  0  0  0  0  0  0  0  0
    4.6031   -1.0129    2.3787 O   0  0  0  0  0  0  0  0  0  0  0  0
    3.6782   -1.1822    1.3345 C   0  0  0  0  0  0  0  0  0  0  0  0
    3.9479   -0.7871    0.0124 C   0  0  0  0  0  0  0  0  0  0  0  0
    2.9882   -0.9643   -0.9854 C   0  0  0  0  0  0  0  0  0  0  0  0
    1.7477   -1.5474   -0.6892 C   0  0  0  0  0  0  0  0  0  0  0  0
    0.7173   -1.6520   -1.7899 C   0  0  0  0  0  0  0  0  0  0  0  0
   -0.4662   -2.5558   -1.4243 C   0  0  0  0  0  0  0  0  0  0  0  0
   -0.9681   -2.3139    0.0157 C   0  0  1  0  0  0  0  0  0  0  0  0
    0.1651   -2.6137    1.0084 C   0  0  0  0  0  0  0  0  0  0  0  0
    1.4626   -1.9312    0.6425 C   0  0  0  0  0  0  0  0  0  0  0  0
    2.4419   -1.7628    1.6342 C   0  0  0  0  0  0  0  0  0  0  0  0
   -1.4828   -0.9473    0.2410 N   0  0  0  0  0  0  0  0  0  0  0  0
   -2.7096   -0.6694   -0.5180 C   0  0  0  0  0  0  0  0  0  0  0  0
   -3.4012    0.5844    0.0479 C   0  0  2  0  0  0  0  0  0  0  0  0
   -3.7216    0.4306    1.4096 O   0  0  0  0  0  0  0  0  0  0  0  0
   -4.6352    0.9449   -0.7560 C   0  0  0  0  0  0  0  0  0  0  0  0
   -5.7630    0.1019   -0.7694 C   0  0  0  0  0  0  0  0  0  0  0  0
   -6.8901    0.4402   -1.5238 C   0  0  0  0  0  0  0  0  0  0  0  0
   -6.9045    1.6178   -2.2742 C   0  0  0  0  0  0  0  0  0  0  0  0
   -5.7894    2.4606   -2.2741 C   0  0  0  0  0  0  0  0  0  0  0  0
   -5.8068    3.9371   -3.2213 Cl  0  0  0  0  0  0  0  0  0  0  0  0
   -4.6587    2.1260   -1.5204 C   0  0  0  0  0  0  0  0  0  0  0  0
    4.1992    2.7665    0.0434 H   0  0  0  0  0  0  0  0  0  0  0  0
    3.1051    4.1032    0.5685 H   0  0  0  0  0  0  0  0  0  0  0  0
    2.6051    2.3819    0.8060 H   0  0  0  0  0  0  0  0  0  0  0  0
    3.3772    3.4494    2.9377 H   0  0  0  0  0  0  0  0  0  0  0  0
    4.9887    3.7790    2.2084 H   0  0  0  0  0  0  0  0  0  0  0  0
    6.4700   -0.7903    1.4688 H   0  0  0  0  0  0  0  0  0  0  0  0
    6.3997   -0.4340    3.2281 H   0  0  0  0  0  0  0  0  0  0  0  0
    4.8938   -0.3390   -0.2568 H   0  0  0  0  0  0  0  0  0  0  0  0
    3.2114   -0.6407   -1.9948 H   0  0  0  0  0  0  0  0  0  0  0  0
    1.1960   -2.0531   -2.7098 H   0  0  0  0  0  0  0  0  0  0  0  0
    0.3439   -0.6334   -2.0296 H   0  0  0  0  0  0  0  0  0  0  0  0
   -1.2873   -2.4132   -2.1575 H   0  0  0  0  0  0  0  0  0  0  0  0
   -0.1437   -3.6169   -1.5145 H   0  0  0  0  0  0  0  0  0  0  0  0
   -1.7817   -3.0442    0.2267 H   0  0  0  0  0  0  0  0  0  0  0  0
    0.3467   -3.7103    1.0332 H   0  0  0  0  0  0  0  0  0  0  0  0
   -0.1552   -2.3060    2.0284 H   0  0  0  0  0  0  0  0  0  0  0  0
    2.2411   -2.0782    2.6511 H   0  0  0  0  0  0  0  0  0  0  0  0
   -0.7589   -0.2331   -0.0048 H   0  0  0  0  0  0  0  0  0  0  0  0
   -2.4612   -0.4875   -1.5873 H   0  0  0  0  0  0  0  0  0  0  0  0
   -3.4077   -1.5340   -0.4609 H   0  0  0  0  0  0  0  0  0  0  0  0
   -2.6695    1.4196   -0.0187 H   0  0  0  0  0  0  0  0  0  0  0  0
   -4.2179   -0.4219    1.5176 H   0  0  0  0  0  0  0  0  0  0  0  0
   -5.7722   -0.8194   -0.2018 H   0  0  0  0  0  0  0  0  0  0  0  0
   -7.7531   -0.2131   -1.5281 H   0  0  0  0  0  0  0  0  0  0  0  0
   -7.7807    1.8729   -2.8566 H   0  0  0  0  0  0  0  0  0  0  0  0
   -3.8007    2.7868   -1.5331 H   0  0  0  0  0  0  0  0  0  0  0  0
  1  2  1  0
  2  3  1  0
  3  4  1  0
  4  5  2  0
  4  6  1  0
  6  7  1  0
  7  8  1  0
  8  9  2  0
  9 10  1  0
 10 11  2  0
 11 12  1  0
 12 13  1  0
 13 14  1  0
 14 15  1  0
 15 16  1  0
 16 17  2  0
 14 18  1  0
 18 19  1  0
 19 20  1  0
 20 21  1  0
 20 22  1  0
 22 23  2  0
 23 24  1  0
 24 25  2  0
 25 26  1  0
 26 27  1  0
 26 28  2  0
 17  8  1  0
 28 22  1  0
 16 11  1  0
  1 29  1  0
  1 30  1  0
  1 31  1  0
  2 32  1  0
  2 33  1  0
  6 34  1  0
  6 35  1  0
  9 36  1  0
 10 37  1  0
 12 38  1  0
 12 39  1  0
 13 40  1  0
 13 41  1  0
 14 42  1  1
 15 43  1  0
 15 44  1  0
 17 45  1  0
 18 46  1  0
 19 47  1  0
 19 48  1  0
 20 49  1  1
 21 50  1  0
 23 51  1  0
 24 52  1  0
 25 53  1  0
 28 54  1  0
M  END
$$$$
