
     RDKit          3D

 37 39  0  0  0  0  0  0  0  0999 V2000
   -1.2861   -3.0587    0.4559 O   0  0  0  0  0  0  0  0  0  0  0  0
   -2.6227   -2.6847    0.3564 C   0  0  0  0  0  0  0  0  0  0  0  0
   -3.5216   -3.5609    0.4648 O   0  0  0  0  0  0  0  0  0  0  0  0
   -2.9965   -1.2754    0.1313 C   0  0  0  0  0  0  0  0  0  0  0  0
   -2.1232   -0.1946   -0.0245 C   0  0  0  0  0  0  0  0  0  0  0  0
   -0.6532   -0.2571    0.0171 C   0  0  0  0  0  0  0  0  0  0  0  0
    0.0405    0.4096    0.9450 C   0  0  0  0  0  0  0  0  0  0  0  0
    1.5102    0.3474    1.0495 C   0  0  0  0  0  0  0  0  0  0  0  0
    2.0968    1.1935    1.7764 O   0  0  0  0  0  0  0  0  0  0  0  0
    2.2683   -0.6822    0.3917 N   0  0  0  0  0  0  0  0  0  0  0  0
    3.6695   -0.5688    0.0878 C   0  0  0  0  0  0  0  0  0  0  0  0
    4.2597    0.6765   -0.2007 C   0  0  0  0  0  0  0  0  0  0  0  0
    5.6199    0.7562   -0.5159 C   0  0  0  0  0  0  0  0  0  0  0  0
    6.3990   -0.4027   -0.5580 C   0  0  0  0  0  0  0  0  0  0  0  0
    5.8174   -1.6449   -0.2927 C   0  0  0  0  0  0  0  0  0  0  0  0
    4.4576   -1.7292    0.0221 C   0  0  0  0  0  0  0  0  0  0  0  0
   -2.9337    0.9250   -0.1899 C   0  0  0  0  0  0  0  0  0  0  0  0
   -2.6534    2.2769   -0.4561 C   0  0  0  0  0  0  0  0  0  0  0  0
   -1.0276    2.8897   -0.7172 Cl  0  0  0  0  0  0  0  0  0  0  0  0
   -3.7412    3.1616   -0.5824 C   0  0  0  0  0  0  0  0  0  0  0  0
   -5.0674    2.6957   -0.4635 C   0  0  0  0  0  0  0  0  0  0  0  0
   -6.4057    3.8166   -0.6320 Cl  0  0  0  0  0  0  0  0  0  0  0  0
   -5.3219    1.3344   -0.2305 C   0  0  0  0  0  0  0  0  0  0  0  0
   -4.2321    0.4753   -0.1048 C   0  0  0  0  0  0  0  0  0  0  0  0
   -4.2806   -0.8533    0.0865 N   0  0  0  0  0  0  0  0  0  0  0  0
   -1.0262   -4.0252    0.6122 H   0  0  0  0  0  0  0  0  0  0  0  0
   -0.1571   -0.9193   -0.6790 H   0  0  0  0  0  0  0  0  0  0  0  0
   -0.4882    1.0550    1.6377 H   0  0  0  0  0  0  0  0  0  0  0  0
    1.8076   -1.6058    0.2295 H   0  0  0  0  0  0  0  0  0  0  0  0
    3.6689    1.5828   -0.2052 H   0  0  0  0  0  0  0  0  0  0  0  0
    6.0684    1.7165   -0.7357 H   0  0  0  0  0  0  0  0  0  0  0  0
    7.4512   -0.3390   -0.8036 H   0  0  0  0  0  0  0  0  0  0  0  0
    6.4198   -2.5432   -0.3330 H   0  0  0  0  0  0  0  0  0  0  0  0
    4.0188   -2.6984    0.2236 H   0  0  0  0  0  0  0  0  0  0  0  0
   -3.5594    4.2090   -0.7883 H   0  0  0  0  0  0  0  0  0  0  0  0
   -6.3352    0.9603   -0.1562 H   0  0  0  0  0  0  0  0  0  0  0  0
   -5.1407   -1.4386    0.1821 H   0  0  0  0  0  0  0  0  0  0  0  0
  1  2  1  0
  2  3  2  0
  2  4  1  0
  4  5  2  0
  5  6  1  0
  6  7  2  0
  7  8  1  0
  8  9  2  0
  8 10  1  0
 10 11  1  0
 11 12  2  0
 12 13  1  0
 13 14  2  0
 14 15  1  0
 15 16  2  0
  5 17  1  0
 17 18  2  0
 18 19  1  0
 18 20  1  0
 20 21  2  0
 21 22  1  0
 21 23  1  0
 23 24  2  0
 24 25  1  0
 25  4  1  0
 16 11  1  0
 24 17  1  0
  1 26  1  0
  6 27  1  0
  7 28  1  0
 10 29  1  0
 12 30  1  0
 13 31  1  0
 14 32  1  0
 15 33  1  0
 16 34  1  0
 20 35  1  0
 23 36  1  0
 25 37  1  0
M  END
$$$$
