
     RDKit          3D

 45 46  0  0  0  0  0  0  0  0999 V2000
   -5.7334   -1.4533    0.5080 C   0  0  0  0  0  0  0  0  0  0  0  0
   -4.4434   -1.0317   -0.2272 C   0  0  0  0  0  0  0  0  0  0  0  0
   -4.4495    0.5061   -0.3752 C   0  0  0  0  0  0  0  0  0  0  0  0
   -4.4548   -1.7052   -1.6181 C   0  0  0  0  0  0  0  0  0  0  0  0
   -3.2848   -1.5025    0.5732 N   0  0  0  0  0  0  0  0  0  0  0  0
   -1.9430   -1.1311    0.0711 C   0  0  0  0  0  0  0  0  0  0  0  0
   -1.2627   -0.0531    0.9495 C   0  0  0  0  0  0  0  0  0  0  0  0
   -1.0354   -0.5272    2.2544 O   0  0  0  0  0  0  0  0  0  0  0  0
    0.0468    0.4507    0.3238 C   0  0  0  0  0  0  0  0  0  0  0  0
    0.9598   -0.6295    0.1556 O   0  0  0  0  0  0  0  0  0  0  0  0
    2.3140   -0.5658   -0.2239 C   0  0  0  0  0  0  0  0  0  0  0  0
    3.0332   -1.7627   -0.1039 C   0  0  0  0  0  0  0  0  0  0  0  0
    4.3882   -1.8275   -0.4251 C   0  0  0  0  0  0  0  0  0  0  0  0
    5.0574   -0.6888   -0.8641 C   0  0  0  0  0  0  0  0  0  0  0  0
    4.3684    0.5227   -1.0004 C   0  0  0  0  0  0  0  0  0  0  0  0
    2.9877    0.5901   -0.7160 C   0  0  0  0  0  0  0  0  0  0  0  0
    2.1989    2.1919   -0.9789 S   0  0  0  0  0  0  0  0  0  0  0  0
    3.4078    3.0317    0.1002 C   0  0  0  0  0  0  0  0  0  0  0  0
    4.8446    2.9521   -0.4647 C   0  0  0  0  0  0  0  0  0  0  0  0
    5.0998    1.7720   -1.4281 C   0  0  0  0  0  0  0  0  0  0  0  0
   -6.6376   -1.1534   -0.0653 H   0  0  0  0  0  0  0  0  0  0  0  0
   -5.7557   -2.5558    0.6480 H   0  0  0  0  0  0  0  0  0  0  0  0
   -5.7882   -0.9761    1.5104 H   0  0  0  0  0  0  0  0  0  0  0  0
   -5.3741    0.8430   -0.8919 H   0  0  0  0  0  0  0  0  0  0  0  0
   -4.4124    0.9910    0.6236 H   0  0  0  0  0  0  0  0  0  0  0  0
   -3.5862    0.8630   -0.9738 H   0  0  0  0  0  0  0  0  0  0  0  0
   -4.3357   -2.8050   -1.5134 H   0  0  0  0  0  0  0  0  0  0  0  0
   -5.4143   -1.5051   -2.1424 H   0  0  0  0  0  0  0  0  0  0  0  0
   -3.6465   -1.3251   -2.2745 H   0  0  0  0  0  0  0  0  0  0  0  0
   -3.3983   -1.2087    1.5724 H   0  0  0  0  0  0  0  0  0  0  0  0
   -1.3148   -2.0472    0.0677 H   0  0  0  0  0  0  0  0  0  0  0  0
   -1.9689   -0.7774   -0.9782 H   0  0  0  0  0  0  0  0  0  0  0  0
   -1.9453    0.8198    1.0225 H   0  0  0  0  0  0  0  0  0  0  0  0
   -0.4590   -1.3328    2.1889 H   0  0  0  0  0  0  0  0  0  0  0  0
    0.4875    1.2137    1.0014 H   0  0  0  0  0  0  0  0  0  0  0  0
   -0.1849    0.9036   -0.6635 H   0  0  0  0  0  0  0  0  0  0  0  0
    2.5338   -2.6550    0.2527 H   0  0  0  0  0  0  0  0  0  0  0  0
    4.9240   -2.7621   -0.3200 H   0  0  0  0  0  0  0  0  0  0  0  0
    6.1147   -0.7510   -1.0900 H   0  0  0  0  0  0  0  0  0  0  0  0
    3.1098    4.0953    0.2146 H   0  0  0  0  0  0  0  0  0  0  0  0
    3.3728    2.5641    1.1085 H   0  0  0  0  0  0  0  0  0  0  0  0
    5.5552    2.8833    0.3876 H   0  0  0  0  0  0  0  0  0  0  0  0
    5.0757    3.8963   -1.0043 H   0  0  0  0  0  0  0  0  0  0  0  0
    6.1954    1.5939   -1.4949 H   0  0  0  0  0  0  0  0  0  0  0  0
    4.7533    2.0487   -2.4477 H   0  0  0  0  0  0  0  0  0  0  0  0
  1  2  1  0
  2  3  1  0
  2  4  1  0
  2  5  1  0
  5  6  1  0
  6  7  1  0
  7  8  1  0
  7  9  1  0
  9 10  1  0
 10 11  1  0
 11 12  2  0
 12 13  1  0
 13 14  2  0
 14 15  1  0
 15 16  2  0
 16 17  1  0
 17 18  1  0
 18 19  1  0
 19 20  1  0
 16 11  1  0
 20 15  1  0
  1 21  1  0
  1 22  1  0
  1 23  1  0
  3 24  1  0
  3 25  1  0
  3 26  1  0
  4 27  1  0
  4 28  1  0
  4 29  1  0
  5 30  1  0
  6 31  1  0
  6 32  1  0
  7 33  1  0
  8 34  1  0
  9 35  1  0
  9 36  1  0
 12 37  1  0
 13 38  1  0
 14 39  1  0
 18 40  1  0
 18 41  1  0
 19 42  1  0
 19 43  1  0
 20 44  1  0
 20 45  1  0
M  END
$$$$
