
     RDKit          3D

 72 77  0  0  0  0  0  0  0  0999 V2000
    2.8547    2.5312    2.9854 C   0  0  0  0  0  0  0  0  0  0  0  0
    2.7847    1.2172    2.2570 C   0  0  0  0  0  0  0  0  0  0  0  0
    1.5417    0.6381    1.9408 C   0  0  0  0  0  0  0  0  0  0  0  0
    0.3753    1.2450    2.2847 N   0  0  0  0  0  0  0  0  0  0  0  0
   -0.8216    0.6869    1.9663 C   0  0  0  0  0  0  0  0  0  0  0  0
   -2.0361    1.3349    2.3705 N   0  0  0  0  0  0  0  0  0  0  0  0
   -3.3443    0.9648    1.9035 C   0  0  0  0  0  0  0  0  0  0  0  0
   -3.5597    0.5528    0.5771 C   0  0  0  0  0  0  0  0  0  0  0  0
   -4.8459    0.2224    0.1408 C   0  0  0  0  0  0  0  0  0  0  0  0
   -5.9376    0.3115    1.0111 C   0  0  0  0  0  0  0  0  0  0  0  0
   -7.2065   -0.0332    0.5242 O   0  0  0  0  0  0  0  0  0  0  0  0
   -8.4077    0.0235    1.2885 C   0  0  0  0  0  0  0  0  0  0  0  0
   -9.6039   -0.4111    0.4403 C   0  0  0  0  0  0  0  0  0  0  0  0
   -9.8677    0.5792   -0.6323 N   0  0  0  0  0  0  0  0  0  0  0  0
   -9.1643    0.2329   -1.8797 C   0  0  0  0  0  0  0  0  0  0  0  0
  -10.1301   -0.5376   -2.7746 C   0  0  0  0  0  0  0  0  0  0  0  0
  -11.4896   -0.4053   -2.1174 C   0  0  0  0  0  0  0  0  0  0  0  0
  -11.2884    0.6095   -1.0076 C   0  0  0  0  0  0  0  0  0  0  0  0
   -5.7276    0.7459    2.3332 C   0  0  0  0  0  0  0  0  0  0  0  0
   -4.4413    1.0772    2.7695 C   0  0  0  0  0  0  0  0  0  0  0  0
   -0.8479   -0.5069    1.3126 N   0  0  0  0  0  0  0  0  0  0  0  0
    0.2803   -1.1255    0.9627 N   0  0  0  0  0  0  0  0  0  0  0  0
    1.4915   -0.5883    1.2555 C   0  0  0  0  0  0  0  0  0  0  0  0
    2.6696   -1.2401    0.8852 C   0  0  0  0  0  0  0  0  0  0  0  0
    3.9152   -0.6768    1.2042 C   0  0  0  0  0  0  0  0  0  0  0  0
    3.9658    0.5548    1.8799 C   0  0  0  0  0  0  0  0  0  0  0  0
    5.1684   -1.3528    0.7997 C   0  0  0  0  0  0  0  0  0  0  0  0
    6.0878   -0.6614   -0.0077 C   0  0  0  0  0  0  0  0  0  0  0  0
    7.2727   -1.2713   -0.4333 C   0  0  0  0  0  0  0  0  0  0  0  0
    8.1534   -0.5307   -1.2358 O   0  0  0  0  0  0  0  0  0  0  0  0
    9.0434   -1.0683   -2.1768 C   0  0  0  0  0  0  0  0  0  0  0  0
    8.8910   -2.2480   -2.5978 O   0  0  0  0  0  0  0  0  0  0  0  0
   10.1304   -0.2246   -2.7207 C   0  0  0  0  0  0  0  0  0  0  0  0
   10.2903    1.1009   -2.2767 C   0  0  0  0  0  0  0  0  0  0  0  0
   11.3180    1.8995   -2.7885 C   0  0  0  0  0  0  0  0  0  0  0  0
   12.1952    1.3851   -3.7459 C   0  0  0  0  0  0  0  0  0  0  0  0
   12.0470    0.0705   -4.1936 C   0  0  0  0  0  0  0  0  0  0  0  0
   11.0212   -0.7327   -3.6855 C   0  0  0  0  0  0  0  0  0  0  0  0
    7.5608   -2.5808   -0.0129 C   0  0  0  0  0  0  0  0  0  0  0  0
    6.6607   -3.2725    0.8000 C   0  0  0  0  0  0  0  0  0  0  0  0
    5.4657   -2.6709    1.2084 C   0  0  0  0  0  0  0  0  0  0  0  0
    4.4073   -3.5716    2.2903 Cl  0  0  0  0  0  0  0  0  0  0  0  0
    2.3414    2.4430    3.9660 H   0  0  0  0  0  0  0  0  0  0  0  0
    3.9050    2.8431    3.1683 H   0  0  0  0  0  0  0  0  0  0  0  0
    2.3560    3.3192    2.3827 H   0  0  0  0  0  0  0  0  0  0  0  0
   -1.9670    2.0689    3.1116 H   0  0  0  0  0  0  0  0  0  0  0  0
   -2.7415    0.5101   -0.1293 H   0  0  0  0  0  0  0  0  0  0  0  0
   -4.9974   -0.0958   -0.8831 H   0  0  0  0  0  0  0  0  0  0  0  0
   -8.5744    1.0602    1.6543 H   0  0  0  0  0  0  0  0  0  0  0  0
   -8.3198   -0.6594    2.1615 H   0  0  0  0  0  0  0  0  0  0  0  0
  -10.4658   -0.4837    1.1401 H   0  0  0  0  0  0  0  0  0  0  0  0
   -9.4367   -1.4340    0.0317 H   0  0  0  0  0  0  0  0  0  0  0  0
   -8.8643    1.1759   -2.3868 H   0  0  0  0  0  0  0  0  0  0  0  0
   -8.2373   -0.3570   -1.7111 H   0  0  0  0  0  0  0  0  0  0  0  0
  -10.1431   -0.1028   -3.7982 H   0  0  0  0  0  0  0  0  0  0  0  0
   -9.8344   -1.6079   -2.8376 H   0  0  0  0  0  0  0  0  0  0  0  0
  -11.7974   -1.3808   -1.6804 H   0  0  0  0  0  0  0  0  0  0  0  0
  -12.2624   -0.0637   -2.8400 H   0  0  0  0  0  0  0  0  0  0  0  0
  -11.5263    1.6243   -1.3965 H   0  0  0  0  0  0  0  0  0  0  0  0
  -11.9772    0.4209   -0.1550 H   0  0  0  0  0  0  0  0  0  0  0  0
   -6.5499    0.8328    3.0302 H   0  0  0  0  0  0  0  0  0  0  0  0
   -4.2964    1.4123    3.7890 H   0  0  0  0  0  0  0  0  0  0  0  0
    2.6168   -2.1773    0.3435 H   0  0  0  0  0  0  0  0  0  0  0  0
    4.9285    0.9914    2.1192 H   0  0  0  0  0  0  0  0  0  0  0  0
    5.8737    0.3519   -0.3270 H   0  0  0  0  0  0  0  0  0  0  0  0
    9.6234    1.5217   -1.5348 H   0  0  0  0  0  0  0  0  0  0  0  0
   11.4342    2.9183   -2.4419 H   0  0  0  0  0  0  0  0  0  0  0  0
   12.9899    2.0050   -4.1405 H   0  0  0  0  0  0  0  0  0  0  0  0
   12.7277   -0.3271   -4.9353 H   0  0  0  0  0  0  0  0  0  0  0  0
   10.9263   -1.7489   -4.0471 H   0  0  0  0  0  0  0  0  0  0  0  0
    8.4937   -3.0583   -0.2791 H   0  0  0  0  0  0  0  0  0  0  0  0
    6.9028   -4.2755    1.1281 H   0  0  0  0  0  0  0  0  0  0  0  0
  1  2  1  0
  2  3  2  0
  3  4  1  0
  4  5  2  0
  5  6  1  0
  6  7  1  0
  7  8  2  0
  8  9  1  0
  9 10  2  0
 10 11  1  0
 11 12  1  0
 12 13  1  0
 13 14  1  0
 14 15  1  0
 15 16  1  0
 16 17  1  0
 17 18  1  0
 10 19  1  0
 19 20  2  0
  5 21  1  0
 21 22  2  0
 22 23  1  0
 23 24  2  0
 24 25  1  0
 25 26  2  0
 25 27  1  0
 27 28  2  0
 28 29  1  0
 29 30  1  0
 30 31  1  0
 31 32  2  0
 31 33  1  0
 33 34  2  0
 34 35  1  0
 35 36  2  0
 36 37  1  0
 37 38  2  0
 29 39  2  0
 39 40  1  0
 40 41  2  0
 41 42  1  0
 26  2  1  0
 41 27  1  0
 23  3  1  0
 38 33  1  0
 20  7  1  0
 18 14  1  0
  1 43  1  0
  1 44  1  0
  1 45  1  0
  6 46  1  0
  8 47  1  0
  9 48  1  0
 12 49  1  0
 12 50  1  0
 13 51  1  0
 13 52  1  0
 15 53  1  0
 15 54  1  0
 16 55  1  0
 16 56  1  0
 17 57  1  0
 17 58  1  0
 18 59  1  0
 18 60  1  0
 19 61  1  0
 20 62  1  0
 24 63  1  0
 26 64  1  0
 28 65  1  0
 34 66  1  0
 35 67  1  0
 36 68  1  0
 37 69  1  0
 38 70  1  0
 39 71  1  0
 40 72  1  0
M  END
$$$$
