
     RDKit          3D

 28 29  0  0  0  0  0  0  0  0999 V2000
   -6.1746    1.0852    0.2110 O   0  0  0  0  0  0  0  0  0  0  0  0
   -5.3046    0.6406   -0.7793 C   0  0  0  0  0  0  0  0  0  0  0  0
   -5.7437   -0.0363   -1.7471 O   0  0  0  0  0  0  0  0  0  0  0  0
   -3.8442    0.9209   -0.6659 C   0  0  0  0  0  0  0  0  0  0  0  0
   -3.2154   -0.1507    0.0306 O   0  0  0  0  0  0  0  0  0  0  0  0
   -1.8427   -0.2183    0.3191 C   0  0  0  0  0  0  0  0  0  0  0  0
   -1.3535   -1.3362    1.0134 C   0  0  0  0  0  0  0  0  0  0  0  0
   -2.4790   -2.6074    1.4889 Cl  0  0  0  0  0  0  0  0  0  0  0  0
    0.0171   -1.4409    1.3215 C   0  0  0  0  0  0  0  0  0  0  0  0
    0.6163   -2.8783    2.1562 Cl  0  0  0  0  0  0  0  0  0  0  0  0
    0.9057   -0.4176    0.9259 C   0  0  0  0  0  0  0  0  0  0  0  0
    0.4063    0.6975    0.2372 C   0  0  0  0  0  0  0  0  0  0  0  0
   -0.9509    0.7972   -0.0662 C   0  0  0  0  0  0  0  0  0  0  0  0
    2.3473   -0.4788    1.2530 C   0  0  0  0  0  0  0  0  0  0  0  0
    2.6994   -0.6958    2.4439 O   0  0  0  0  0  0  0  0  0  0  0  0
    3.3834   -0.2859    0.2198 C   0  0  0  0  0  0  0  0  0  0  0  0
    4.7492   -0.1676    0.4553 C   0  0  0  0  0  0  0  0  0  0  0  0
    5.5051   -0.0307   -0.7156 C   0  0  0  0  0  0  0  0  0  0  0  0
    4.7446   -0.0486   -1.8771 C   0  0  0  0  0  0  0  0  0  0  0  0
    3.1310   -0.2365   -1.4456 S   0  0  0  0  0  0  0  0  0  0  0  0
   -7.1667    0.8877    0.1577 H   0  0  0  0  0  0  0  0  0  0  0  0
   -3.6969    1.8710   -0.1085 H   0  0  0  0  0  0  0  0  0  0  0  0
   -3.4055    1.0209   -1.6824 H   0  0  0  0  0  0  0  0  0  0  0  0
    1.0691    1.5031   -0.0549 H   0  0  0  0  0  0  0  0  0  0  0  0
   -1.2970    1.6730   -0.5976 H   0  0  0  0  0  0  0  0  0  0  0  0
    5.1912   -0.1806    1.4430 H   0  0  0  0  0  0  0  0  0  0  0  0
    6.5817    0.0748   -0.7157 H   0  0  0  0  0  0  0  0  0  0  0  0
    5.1276    0.0383   -2.8848 H   0  0  0  0  0  0  0  0  0  0  0  0
  1  2  1  0
  2  3  2  0
  2  4  1  0
  4  5  1  0
  5  6  1  0
  6  7  2  0
  7  8  1  0
  7  9  1  0
  9 10  1  0
  9 11  2  0
 11 12  1  0
 12 13  2  0
 11 14  1  0
 14 15  2  0
 14 16  1  0
 16 17  2  0
 17 18  1  0
 18 19  2  0
 19 20  1  0
 13  6  1  0
 20 16  1  0
  1 21  1  0
  4 22  1  0
  4 23  1  0
 12 24  1  0
 13 25  1  0
 17 26  1  0
 18 27  1  0
 19 28  1  0
M  END
$$$$
