
     RDKit          3D

 60 62  0  0  0  0  0  0  0  0999 V2000
   -0.6263   -4.8306   -1.3541 C   0  0  0  0  0  0  0  0  0  0  0  0
   -0.7827   -3.7749   -2.4365 C   0  0  0  0  0  0  0  0  0  0  0  0
   -1.0745   -2.5193   -1.8344 O   0  0  0  0  0  0  0  0  0  0  0  0
   -1.1717   -1.3328   -2.5667 C   0  0  0  0  0  0  0  0  0  0  0  0
   -1.0423   -1.3407   -3.8221 O   0  0  0  0  0  0  0  0  0  0  0  0
   -1.3872   -0.0362   -1.8329 C   0  0  2  0  0  0  0  0  0  0  0  0
   -2.6156    0.7130   -2.3878 C   0  0  0  0  0  0  0  0  0  0  0  0
   -2.8487    2.0866   -1.7269 C   0  0  0  0  0  0  0  0  0  0  0  0
   -2.8733    2.0132   -0.2195 C   0  0  0  0  0  0  0  0  0  0  0  0
   -1.7960    2.5129    0.5336 C   0  0  0  0  0  0  0  0  0  0  0  0
   -1.7877    2.3836    1.9250 C   0  0  0  0  0  0  0  0  0  0  0  0
   -2.8571    1.7633    2.5762 C   0  0  0  0  0  0  0  0  0  0  0  0
   -3.9365    1.2718    1.8362 C   0  0  0  0  0  0  0  0  0  0  0  0
   -3.9459    1.3940    0.4430 C   0  0  0  0  0  0  0  0  0  0  0  0
   -0.1911    0.8268   -1.9079 N   0  0  0  0  0  0  0  0  0  0  0  0
    0.8317    0.5167   -0.8868 C   0  0  1  0  0  0  0  0  0  0  0  0
    1.7549   -0.6463   -1.3240 C   0  0  0  0  0  0  0  0  0  0  0  0
    3.4299   -0.6338   -0.5669 S   0  0  0  0  0  0  0  0  0  0  0  0
    2.9832   -0.5484    1.2182 C   0  0  1  0  0  0  0  0  0  0  0  0
    2.3030    0.7734    1.6795 C   0  0  0  0  0  0  0  0  0  0  0  0
    2.3835    1.8452    0.6701 N   0  0  0  0  0  0  0  0  0  0  0  0
    3.1066    3.0802    0.9963 C   0  0  0  0  0  0  0  0  0  0  0  0
    2.1734    4.0613    1.6305 C   0  0  0  0  0  0  0  0  0  0  0  0
    1.4239    4.9203    0.8333 O   0  0  0  0  0  0  0  0  0  0  0  0
    2.0284    4.0761    2.8820 O   0  0  0  0  0  0  0  0  0  0  0  0
    1.6240    1.7593   -0.5594 C   0  0  0  0  0  0  0  0  0  0  0  0
    1.6668    2.7049   -1.3944 O   0  0  0  0  0  0  0  0  0  0  0  0
    2.2529   -1.7991    1.6473 C   0  0  0  0  0  0  0  0  0  0  0  0
    2.8631   -3.0257    1.8894 C   0  0  0  0  0  0  0  0  0  0  0  0
    1.9592   -4.0548    2.1810 C   0  0  0  0  0  0  0  0  0  0  0  0
    0.6304   -3.6551    2.1585 C   0  0  0  0  0  0  0  0  0  0  0  0
    0.5842   -2.0222    1.7697 S   0  0  0  0  0  0  0  0  0  0  0  0
   -1.5592   -4.9032   -0.7559 H   0  0  0  0  0  0  0  0  0  0  0  0
    0.2171   -4.5615   -0.6837 H   0  0  0  0  0  0  0  0  0  0  0  0
   -0.4166   -5.8168   -1.8191 H   0  0  0  0  0  0  0  0  0  0  0  0
   -1.6095   -4.0631   -3.1210 H   0  0  0  0  0  0  0  0  0  0  0  0
    0.1645   -3.7041   -3.0146 H   0  0  0  0  0  0  0  0  0  0  0  0
   -1.6248   -0.2905   -0.7760 H   0  0  0  0  0  0  0  0  0  0  0  0
   -2.4944    0.8739   -3.4815 H   0  0  0  0  0  0  0  0  0  0  0  0
   -3.5211    0.0833   -2.2424 H   0  0  0  0  0  0  0  0  0  0  0  0
   -3.8186    2.4954   -2.0841 H   0  0  0  0  0  0  0  0  0  0  0  0
   -2.0626    2.7953   -2.0683 H   0  0  0  0  0  0  0  0  0  0  0  0
   -0.9586    2.9931    0.0443 H   0  0  0  0  0  0  0  0  0  0  0  0
   -0.9503    2.7618    2.4975 H   0  0  0  0  0  0  0  0  0  0  0  0
   -2.8493    1.6629    3.6537 H   0  0  0  0  0  0  0  0  0  0  0  0
   -4.7635    0.7903    2.3419 H   0  0  0  0  0  0  0  0  0  0  0  0
   -4.7815    0.9975   -0.1202 H   0  0  0  0  0  0  0  0  0  0  0  0
    0.2141    0.8364   -2.8739 H   0  0  0  0  0  0  0  0  0  0  0  0
    0.3167    0.2183    0.0437 H   0  0  0  0  0  0  0  0  0  0  0  0
    1.2733   -1.6176   -1.0943 H   0  0  0  0  0  0  0  0  0  0  0  0
    1.9114   -0.6126   -2.4224 H   0  0  0  0  0  0  0  0  0  0  0  0
    3.9671   -0.5731    1.7362 H   0  0  0  0  0  0  0  0  0  0  0  0
    1.2439    0.6303    1.9717 H   0  0  0  0  0  0  0  0  0  0  0  0
    2.7909    1.1002    2.6247 H   0  0  0  0  0  0  0  0  0  0  0  0
    3.5553    3.5226    0.0811 H   0  0  0  0  0  0  0  0  0  0  0  0
    3.9515    2.8653    1.6866 H   0  0  0  0  0  0  0  0  0  0  0  0
    0.7665    5.5710    1.2461 H   0  0  0  0  0  0  0  0  0  0  0  0
    3.9336   -3.1775    1.8446 H   0  0  0  0  0  0  0  0  0  0  0  0
    2.2670   -5.0701    2.3926 H   0  0  0  0  0  0  0  0  0  0  0  0
   -0.2252   -4.2903    2.3430 H   0  0  0  0  0  0  0  0  0  0  0  0
  1  2  1  0
  2  3  1  0
  3  4  1  0
  4  5  2  0
  4  6  1  0
  6  7  1  0
  7  8  1  0
  8  9  1  0
  9 10  2  0
 10 11  1  0
 11 12  2  0
 12 13  1  0
 13 14  2  0
  6 15  1  0
 15 16  1  0
 16 17  1  0
 17 18  1  0
 18 19  1  0
 19 20  1  0
 20 21  1  0
 21 22  1  0
 22 23  1  0
 23 24  1  0
 23 25  2  0
 21 26  1  0
 26 27  2  0
 19 28  1  0
 28 29  2  0
 29 30  1  0
 30 31  2  0
 31 32  1  0
 14  9  1  0
 26 16  1  0
 32 28  1  0
  1 33  1  0
  1 34  1  0
  1 35  1  0
  2 36  1  0
  2 37  1  0
  6 38  1  1
  7 39  1  0
  7 40  1  0
  8 41  1  0
  8 42  1  0
 10 43  1  0
 11 44  1  0
 12 45  1  0
 13 46  1  0
 14 47  1  0
 15 48  1  0
 16 49  1  1
 17 50  1  0
 17 51  1  0
 19 52  1  1
 20 53  1  0
 20 54  1  0
 22 55  1  0
 22 56  1  0
 24 57  1  0
 29 58  1  0
 30 59  1  0
 31 60  1  0
M  END
$$$$
