
     RDKit          3D

 32 32  0  0  0  0  0  0  0  0999 V2000
   -0.3334   -4.1580    0.1019 O   0  0  0  0  0  0  0  0  0  0  0  0
   -0.8407   -3.1744    0.9637 C   0  0  0  0  0  0  0  0  0  0  0  0
   -0.5902   -1.7640    0.4004 C   0  0  1  0  0  0  0  0  0  0  0  0
   -1.2249   -0.7732    1.2778 N   0  0  0  0  0  0  0  0  0  0  0  0
   -2.0601    0.2877    0.7860 C   0  0  0  0  0  0  0  0  0  0  0  0
   -2.2761    0.4088   -0.4504 O   0  0  0  0  0  0  0  0  0  0  0  0
   -2.6748    1.2704    1.7354 C   0  0  0  0  0  0  0  0  0  0  0  0
   -1.4036    2.1911    2.5761 Cl  0  0  0  0  0  0  0  0  0  0  0  0
   -3.6850    0.4209    2.9310 Cl  0  0  0  0  0  0  0  0  0  0  0  0
    0.9197   -1.4657    0.2497 C   0  0  2  0  0  0  0  0  0  0  0  0
    1.5503   -1.5102    1.5058 O   0  0  0  0  0  0  0  0  0  0  0  0
    1.1343   -0.1204   -0.4171 C   0  0  0  0  0  0  0  0  0  0  0  0
    1.2606    1.0564    0.3412 C   0  0  0  0  0  0  0  0  0  0  0  0
    1.3969    2.2956   -0.2897 C   0  0  0  0  0  0  0  0  0  0  0  0
    1.4036    2.3858   -1.6930 C   0  0  0  0  0  0  0  0  0  0  0  0
    1.2673    1.2096   -2.4496 C   0  0  0  0  0  0  0  0  0  0  0  0
    1.1288   -0.0294   -1.8178 C   0  0  0  0  0  0  0  0  0  0  0  0
    1.5412    3.6606   -2.3469 N   0  0  0  0  0  4  0  0  0  0  0  0
    1.5455    3.7452   -3.7205 O   0  0  0  0  0  1  0  0  0  0  0  0
    1.6590    4.7094   -1.6796 O   0  0  0  0  0  0  0  0  0  0  0  0
   -0.9588   -4.2122   -0.6673 H   0  0  0  0  0  0  0  0  0  0  0  0
   -1.9337   -3.3298    1.1144 H   0  0  0  0  0  0  0  0  0  0  0  0
   -0.3521   -3.2822    1.9554 H   0  0  0  0  0  0  0  0  0  0  0  0
   -1.0564   -1.7305   -0.6096 H   0  0  0  0  0  0  0  0  0  0  0  0
   -0.9971   -0.7962    2.2980 H   0  0  0  0  0  0  0  0  0  0  0  0
   -3.3174    1.9872    1.1811 H   0  0  0  0  0  0  0  0  0  0  0  0
    1.3648   -2.2551   -0.4010 H   0  0  0  0  0  0  0  0  0  0  0  0
    2.5273   -1.5580    1.3344 H   0  0  0  0  0  0  0  0  0  0  0  0
    1.2431    1.0192    1.4229 H   0  0  0  0  0  0  0  0  0  0  0  0
    1.4911    3.1843    0.3211 H   0  0  0  0  0  0  0  0  0  0  0  0
    1.2614    1.2467   -3.5312 H   0  0  0  0  0  0  0  0  0  0  0  0
    1.0094   -0.9198   -2.4227 H   0  0  0  0  0  0  0  0  0  0  0  0
  1  2  1  0
  2  3  1  0
  3  4  1  0
  4  5  1  0
  5  6  2  0
  5  7  1  0
  7  8  1  0
  7  9  1  0
  3 10  1  0
 10 11  1  0
 10 12  1  0
 12 13  2  0
 13 14  1  0
 14 15  2  0
 15 16  1  0
 16 17  2  0
 15 18  1  0
 18 19  1  0
 18 20  2  0
 17 12  1  0
  1 21  1  0
  2 22  1  0
  2 23  1  0
  3 24  1  6
  4 25  1  0
  7 26  1  0
 10 27  1  6
 11 28  1  0
 13 29  1  0
 14 30  1  0
 16 31  1  0
 17 32  1  0
M  CHG  2  18   1  19  -1
M  END
$$$$
