
     RDKit          3D

 55 55  0  0  0  0  0  0  0  0999 V2000
    8.0673   -1.0409    0.5639 C   0  0  0  0  0  0  0  0  0  0  0  0
    7.0036   -0.1901    1.2571 C   0  0  0  0  0  0  0  0  0  0  0  0
    5.5782   -0.5215    0.7894 C   0  0  0  0  0  0  0  0  0  0  0  0
    5.3116   -0.0750   -0.6585 C   0  0  0  0  0  0  0  0  0  0  0  0
    3.8366   -0.2739   -1.0691 C   0  0  0  0  0  0  0  0  0  0  0  0
    3.0257    1.0352   -1.1169 C   0  0  0  0  0  0  0  0  0  0  0  0
    2.8229    1.7205    0.2477 C   0  0  0  0  0  0  0  0  0  0  0  0
    1.9588    0.9188    1.2369 C   0  0  0  0  0  0  0  0  0  0  0  0
    0.5489    0.7300    0.7377 C   0  0  0  0  0  0  0  0  0  0  0  0
    0.1467   -0.4973    0.1871 C   0  0  0  0  0  0  0  0  0  0  0  0
   -1.1542   -0.6614   -0.2967 C   0  0  0  0  0  0  0  0  0  0  0  0
   -2.0680    0.4031   -0.2489 C   0  0  0  0  0  0  0  0  0  0  0  0
   -3.4805    0.2153   -0.7376 C   0  0  0  0  0  0  0  0  0  0  0  0
   -4.3716   -0.3170    0.3989 C   0  0  0  0  0  0  0  0  0  0  0  0
   -5.8975   -0.4338    0.0774 C   0  0  0  0  0  0  0  0  0  0  0  0
   -6.4817    0.8867   -0.2106 N   0  0  0  0  0  0  0  0  0  0  0  0
   -6.1636   -1.4070   -1.1057 C   0  0  0  0  0  0  0  0  0  0  0  0
   -5.7796   -0.8459   -2.3315 O   0  0  0  0  0  0  0  0  0  0  0  0
   -6.5935   -1.0023    1.3433 C   0  0  0  0  0  0  0  0  0  0  0  0
   -7.9864   -1.0740    1.1773 O   0  0  0  0  0  0  0  0  0  0  0  0
   -1.6693    1.6269    0.3113 C   0  0  0  0  0  0  0  0  0  0  0  0
   -0.3682    1.7912    0.7946 C   0  0  0  0  0  0  0  0  0  0  0  0
    8.1350   -0.7845   -0.5136 H   0  0  0  0  0  0  0  0  0  0  0  0
    7.8343   -2.1213    0.6744 H   0  0  0  0  0  0  0  0  0  0  0  0
    9.0567   -0.8439    1.0279 H   0  0  0  0  0  0  0  0  0  0  0  0
    7.2202    0.8874    1.0894 H   0  0  0  0  0  0  0  0  0  0  0  0
    7.0663   -0.3783    2.3509 H   0  0  0  0  0  0  0  0  0  0  0  0
    4.8714   -0.0079    1.4724 H   0  0  0  0  0  0  0  0  0  0  0  0
    5.3966   -1.6146    0.8850 H   0  0  0  0  0  0  0  0  0  0  0  0
    5.9439   -0.6872   -1.3368 H   0  0  0  0  0  0  0  0  0  0  0  0
    5.6189    0.9850   -0.7946 H   0  0  0  0  0  0  0  0  0  0  0  0
    3.8219   -0.6992   -2.0967 H   0  0  0  0  0  0  0  0  0  0  0  0
    3.3330   -1.0266   -0.4270 H   0  0  0  0  0  0  0  0  0  0  0  0
    2.0358    0.8274   -1.5765 H   0  0  0  0  0  0  0  0  0  0  0  0
    3.5402    1.7492   -1.7964 H   0  0  0  0  0  0  0  0  0  0  0  0
    2.3412    2.7074    0.0736 H   0  0  0  0  0  0  0  0  0  0  0  0
    3.8084    1.9355    0.7104 H   0  0  0  0  0  0  0  0  0  0  0  0
    1.9250    1.4714    2.2010 H   0  0  0  0  0  0  0  0  0  0  0  0
    2.4297   -0.0605    1.4620 H   0  0  0  0  0  0  0  0  0  0  0  0
    0.8394   -1.3276    0.1319 H   0  0  0  0  0  0  0  0  0  0  0  0
   -1.4495   -1.6184   -0.7089 H   0  0  0  0  0  0  0  0  0  0  0  0
   -3.8634    1.1846   -1.1178 H   0  0  0  0  0  0  0  0  0  0  0  0
   -3.4701   -0.5018   -1.5844 H   0  0  0  0  0  0  0  0  0  0  0  0
   -3.9866   -1.3179    0.6980 H   0  0  0  0  0  0  0  0  0  0  0  0
   -4.2448    0.3515    1.2802 H   0  0  0  0  0  0  0  0  0  0  0  0
   -6.2312    1.5553    0.5545 H   0  0  0  0  0  0  0  0  0  0  0  0
   -6.1004    1.2797   -1.0996 H   0  0  0  0  0  0  0  0  0  0  0  0
   -5.6099   -2.3591   -0.9392 H   0  0  0  0  0  0  0  0  0  0  0  0
   -7.2483   -1.6500   -1.1606 H   0  0  0  0  0  0  0  0  0  0  0  0
   -5.9444   -1.5420   -3.0194 H   0  0  0  0  0  0  0  0  0  0  0  0
   -6.2152   -2.0264    1.5533 H   0  0  0  0  0  0  0  0  0  0  0  0
   -6.3502   -0.3798    2.2362 H   0  0  0  0  0  0  0  0  0  0  0  0
   -8.3488   -0.1738    1.3862 H   0  0  0  0  0  0  0  0  0  0  0  0
   -2.3662    2.4536    0.3736 H   0  0  0  0  0  0  0  0  0  0  0  0
   -0.0749    2.7452    1.2151 H   0  0  0  0  0  0  0  0  0  0  0  0
  1  2  1  0
  2  3  1  0
  3  4  1  0
  4  5  1  0
  5  6  1  0
  6  7  1  0
  7  8  1  0
  8  9  1  0
  9 10  2  0
 10 11  1  0
 11 12  2  0
 12 13  1  0
 13 14  1  0
 14 15  1  0
 15 16  1  0
 15 17  1  0
 17 18  1  0
 15 19  1  0
 19 20  1  0
 12 21  1  0
 21 22  2  0
 22  9  1  0
  1 23  1  0
  1 24  1  0
  1 25  1  0
  2 26  1  0
  2 27  1  0
  3 28  1  0
  3 29  1  0
  4 30  1  0
  4 31  1  0
  5 32  1  0
  5 33  1  0
  6 34  1  0
  6 35  1  0
  7 36  1  0
  7 37  1  0
  8 38  1  0
  8 39  1  0
 10 40  1  0
 11 41  1  0
 13 42  1  0
 13 43  1  0
 14 44  1  0
 14 45  1  0
 16 46  1  0
 16 47  1  0
 17 48  1  0
 17 49  1  0
 18 50  1  0
 19 51  1  0
 19 52  1  0
 20 53  1  0
 21 54  1  0
 22 55  1  0
M  END
$$$$
