
     RDKit          3D

 60 63  0  0  0  0  0  0  0  0999 V2000
   -0.8170   -0.7811   -0.5769 C   0  0  2  0  0  0  0  0  0  0  0  0
   -1.5504   -1.7277   -1.5186 C   0  0  0  0  0  0  0  0  0  0  0  0
   -3.0316   -1.3309   -1.3888 C   0  0  0  0  0  0  0  0  0  0  0  0
   -3.1028   -0.0874   -0.4547 C   0  0  2  0  0  0  0  0  0  0  0  0
   -3.3259   -0.5911    0.8775 O   0  0  0  0  0  0  0  0  0  0  0  0
   -3.7429    0.1441    1.9990 C   0  0  0  0  0  0  0  0  0  0  0  0
   -3.9509   -0.5629    3.2940 C   0  0  0  0  0  0  0  0  0  0  0  0
   -3.9707    1.3814    1.9263 O   0  0  0  0  0  0  0  0  0  0  0  0
   -4.2651    0.8266   -0.8571 C   0  0  0  0  0  0  0  0  0  0  0  0
   -5.6313    0.2698   -1.1438 C   0  0  0  0  0  0  0  0  0  0  0  0
   -4.1352    2.0408   -0.8344 O   0  0  0  0  0  0  0  0  0  0  0  0
   -1.6563    0.5122   -0.6076 C   0  0  2  0  0  0  0  0  0  0  0  0
   -1.5261    1.2839   -1.9709 C   0  0  0  0  0  0  0  0  0  0  0  0
   -1.1531    1.4217    0.5406 C   0  0  0  0  0  0  0  0  0  0  0  0
    0.3585    1.7213    0.4058 C   0  0  0  0  0  0  0  0  0  0  0  0
    1.2128    0.4190    0.3154 C   0  0  1  0  0  0  0  0  0  0  0  0
    0.6947   -0.5387   -0.7998 C   0  0  1  0  0  0  0  0  0  0  0  0
    1.4705   -1.8317   -0.7850 C   0  0  0  0  0  0  0  0  0  0  0  0
    2.7520   -1.9154   -0.3835 C   0  0  0  0  0  0  0  0  0  0  0  0
    3.4545   -3.2479   -0.5096 C   0  0  0  0  0  0  0  0  0  0  0  0
    3.4475   -0.7301    0.2276 C   0  0  0  0  0  0  0  0  0  0  0  0
    4.6826   -0.8693    0.7579 C   0  0  0  0  0  0  0  0  0  0  0  0
    5.3952    0.2412    1.4063 C   0  0  0  0  0  0  0  0  0  0  0  0
    6.5629    0.0572    1.8414 O   0  0  0  0  0  0  0  0  0  0  0  0
    4.7718    1.5933    1.5271 C   0  0  0  0  0  0  0  0  0  0  0  0
    3.2469    1.5086    1.4117 C   0  0  0  0  0  0  0  0  0  0  0  0
    2.7635    0.6468    0.2019 C   0  0  2  0  0  0  0  0  0  0  0  0
    3.1502    1.3575   -1.1215 C   0  0  0  0  0  0  0  0  0  0  0  0
   -0.9056   -1.2383    0.4393 H   0  0  0  0  0  0  0  0  0  0  0  0
   -1.3997   -2.7877   -1.2191 H   0  0  0  0  0  0  0  0  0  0  0  0
   -1.1987   -1.5895   -2.5646 H   0  0  0  0  0  0  0  0  0  0  0  0
   -3.6202   -2.1777   -0.9714 H   0  0  0  0  0  0  0  0  0  0  0  0
   -3.4363   -1.1056   -2.4007 H   0  0  0  0  0  0  0  0  0  0  0  0
   -3.5989    0.0715    4.1346 H   0  0  0  0  0  0  0  0  0  0  0  0
   -5.0306   -0.7827    3.4260 H   0  0  0  0  0  0  0  0  0  0  0  0
   -3.3812   -1.5158    3.3017 H   0  0  0  0  0  0  0  0  0  0  0  0
   -6.3782    0.7598   -0.4844 H   0  0  0  0  0  0  0  0  0  0  0  0
   -5.8967    0.4677   -2.2031 H   0  0  0  0  0  0  0  0  0  0  0  0
   -5.6743   -0.8229   -0.9578 H   0  0  0  0  0  0  0  0  0  0  0  0
   -1.9958    0.7352   -2.8120 H   0  0  0  0  0  0  0  0  0  0  0  0
   -0.4825    1.4894   -2.2660 H   0  0  0  0  0  0  0  0  0  0  0  0
   -2.0033    2.2818   -1.9113 H   0  0  0  0  0  0  0  0  0  0  0  0
   -1.3006    0.9296    1.5238 H   0  0  0  0  0  0  0  0  0  0  0  0
   -1.7205    2.3770    0.5517 H   0  0  0  0  0  0  0  0  0  0  0  0
    0.5384    2.3771   -0.4683 H   0  0  0  0  0  0  0  0  0  0  0  0
    0.6461    2.2997    1.3074 H   0  0  0  0  0  0  0  0  0  0  0  0
    1.0478   -0.1074    1.2857 H   0  0  0  0  0  0  0  0  0  0  0  0
    0.8476   -0.1058   -1.8034 H   0  0  0  0  0  0  0  0  0  0  0  0
    1.0000   -2.7027   -1.2240 H   0  0  0  0  0  0  0  0  0  0  0  0
    3.6485   -3.6648    0.5009 H   0  0  0  0  0  0  0  0  0  0  0  0
    4.4151   -3.1173   -1.0506 H   0  0  0  0  0  0  0  0  0  0  0  0
    2.8563   -3.9923   -1.0782 H   0  0  0  0  0  0  0  0  0  0  0  0
    5.1865   -1.8256    0.7592 H   0  0  0  0  0  0  0  0  0  0  0  0
    5.1850    2.2596    0.7411 H   0  0  0  0  0  0  0  0  0  0  0  0
    5.0348    2.0352    2.5126 H   0  0  0  0  0  0  0  0  0  0  0  0
    2.8651    2.5483    1.3304 H   0  0  0  0  0  0  0  0  0  0  0  0
    2.8507    1.0768    2.3581 H   0  0  0  0  0  0  0  0  0  0  0  0
    2.7092    2.3735   -1.1787 H   0  0  0  0  0  0  0  0  0  0  0  0
    2.8363    0.7788   -2.0119 H   0  0  0  0  0  0  0  0  0  0  0  0
    4.2513    1.4637   -1.2064 H   0  0  0  0  0  0  0  0  0  0  0  0
  1  2  1  0
  2  3  1  0
  3  4  1  0
  4  5  1  1
  5  6  1  0
  6  7  1  0
  6  8  2  0
  4  9  1  0
  9 10  1  0
  9 11  2  0
  4 12  1  0
 12 13  1  6
 12 14  1  0
 14 15  1  0
 15 16  1  0
 16 17  1  0
 17 18  1  0
 18 19  2  0
 19 20  1  0
 19 21  1  0
 21 22  2  0
 22 23  1  0
 23 24  2  0
 23 25  1  0
 25 26  1  0
 26 27  1  0
 27 28  1  6
 12  1  1  0
 27 16  1  0
 17  1  1  0
 27 21  1  0
  1 29  1  1
  2 30  1  0
  2 31  1  0
  3 32  1  0
  3 33  1  0
  7 34  1  0
  7 35  1  0
  7 36  1  0
 10 37  1  0
 10 38  1  0
 10 39  1  0
 13 40  1  0
 13 41  1  0
 13 42  1  0
 14 43  1  0
 14 44  1  0
 15 45  1  0
 15 46  1  0
 16 47  1  1
 17 48  1  6
 18 49  1  0
 20 50  1  0
 20 51  1  0
 20 52  1  0
 22 53  1  0
 25 54  1  0
 25 55  1  0
 26 56  1  0
 26 57  1  0
 28 58  1  0
 28 59  1  0
 28 60  1  0
M  END
$$$$
