
     RDKit          3D

116119  0  0  0  0  0  0  0  0999 V2000
   -8.6284    4.8482   -2.9702 N   0  0  0  0  0  0  0  0  0  0  0  0
   -8.9949    3.4931   -2.7123 C   0  0  0  0  0  0  0  0  0  0  0  0
   -9.7115    2.7572   -3.7126 N   0  0  0  0  0  0  0  0  0  0  0  0
   -8.6682    2.9569   -1.5723 N   0  0  0  0  0  0  0  0  0  0  0  0
   -8.9702    1.5866   -1.1657 C   0  0  0  0  0  0  0  0  0  0  0  0
   -8.4283    1.3200    0.2404 C   0  0  0  0  0  0  0  0  0  0  0  0
   -6.8917    1.3753    0.2829 C   0  0  0  0  0  0  0  0  0  0  0  0
   -6.3319    1.0270    1.6813 C   0  0  0  0  0  0  0  0  0  0  0  0
   -5.8333   -0.4280    1.8307 C   0  0  2  0  0  0  0  0  0  0  0  0
   -4.6602   -0.6773    0.9835 N   0  0  0  0  0  0  0  0  0  0  0  0
   -3.8309   -1.8373    1.1512 C   0  0  0  0  0  0  0  0  0  0  0  0
   -4.1886   -2.7683    1.9229 O   0  0  0  0  0  0  0  0  0  0  0  0
   -2.5263   -1.9555    0.4049 C   0  0  1  0  0  0  0  0  0  0  0  0
   -2.7711   -2.2055   -1.0966 C   0  0  0  0  0  0  0  0  0  0  0  0
   -3.4969   -3.5044   -1.3420 C   0  0  0  0  0  0  0  0  0  0  0  0
   -4.8738   -3.5059   -1.6186 C   0  0  0  0  0  0  0  0  0  0  0  0
   -5.5531   -4.7123   -1.8122 C   0  0  0  0  0  0  0  0  0  0  0  0
   -4.8658   -5.9276   -1.7309 C   0  0  0  0  0  0  0  0  0  0  0  0
   -5.5553   -7.1222   -1.9256 O   0  0  0  0  0  0  0  0  0  0  0  0
   -3.4920   -5.9322   -1.4539 C   0  0  0  0  0  0  0  0  0  0  0  0
   -2.8110   -4.7270   -1.2583 C   0  0  0  0  0  0  0  0  0  0  0  0
   -1.7414   -0.7318    0.5935 N   0  0  0  0  0  0  0  0  0  0  0  0
   -1.2318   -0.3405    1.8788 C   0  0  0  0  0  0  0  0  0  0  0  0
   -1.3064   -1.1322    2.8570 O   0  0  0  0  0  0  0  0  0  0  0  0
   -0.6356    1.0279    2.0877 C   0  0  2  0  0  0  0  0  0  0  0  0
   -1.6090    2.1400    1.8357 C   0  0  0  0  0  0  0  0  0  0  0  0
   -0.6485    2.4923    0.7450 C   0  0  0  0  0  0  0  0  0  0  0  0
    0.2972    1.3897    1.0030 N   0  0  0  0  0  0  0  0  0  0  0  0
    1.5575    0.9579    0.4908 C   0  0  0  0  0  0  0  0  0  0  0  0
    2.0224    1.5046   -0.5451 O   0  0  0  0  0  0  0  0  0  0  0  0
    2.3246   -0.1459    1.1786 C   0  0  1  0  0  0  0  0  0  0  0  0
    1.9425   -1.5668    0.6753 C   0  0  0  0  0  0  0  0  0  0  0  0
    1.5465   -1.7139   -0.8240 C   0  0  0  0  0  0  0  0  0  0  0  0
    1.0136   -3.1367   -1.0997 C   0  0  0  0  0  0  0  0  0  0  0  0
    2.1138   -4.2145   -1.0288 C   0  0  0  0  0  0  0  0  0  0  0  0
    3.4892   -3.7257   -1.5247 C   0  0  0  0  0  0  0  0  0  0  0  0
    3.3626   -2.5487   -2.4928 C   0  0  0  0  0  0  0  0  0  0  0  0
    2.6766   -1.3397   -1.8282 C   0  0  0  0  0  0  0  0  0  0  0  0
    3.7729    0.0878    1.0927 N   0  0  0  0  0  0  0  0  0  0  0  0
    4.3982    1.2421    1.6752 C   0  0  0  0  0  0  0  0  0  0  0  0
    3.7011    2.1005    2.2836 O   0  0  0  0  0  0  0  0  0  0  0  0
    5.8785    1.4665    1.4947 C   0  0  2  0  0  0  0  0  0  0  0  0
    6.5203    2.0780    2.7528 C   0  0  0  0  0  0  0  0  0  0  0  0
    8.0530    2.1957    2.6126 C   0  0  0  0  0  0  0  0  0  0  0  0
    8.5346    2.3342    1.1447 C   0  0  2  0  0  0  0  0  0  0  0  0
    9.9103    3.0199    1.0904 C   0  0  0  0  0  0  0  0  0  0  0  0
   10.4552    2.9513   -0.2636 N   0  0  0  0  0  0  0  0  0  0  0  0
   11.6021    3.4384   -0.6394 C   0  0  0  0  0  0  0  0  0  0  0  0
   12.0016    3.2956   -2.0022 N   0  0  0  0  0  0  0  0  0  0  0  0
   12.4711    4.1133    0.2798 N   0  0  0  0  0  0  0  0  0  0  0  0
    7.4921    3.0908    0.2970 C   0  0  0  0  0  0  0  0  0  0  0  0
    6.1388    2.3495    0.2513 C   0  0  0  0  0  0  0  0  0  0  0  0
   -6.9294   -1.4238    1.5491 C   0  0  0  0  0  0  0  0  0  0  0  0
   -7.8515   -1.7844    2.5771 N   0  0  0  0  0  0  0  0  0  0  0  0
   -7.0671   -1.9090    0.3941 O   0  0  0  0  0  0  0  0  0  0  0  0
   -8.1053    5.4018   -2.2555 H   0  0  0  0  0  0  0  0  0  0  0  0
   -8.8781    5.3024   -3.8764 H   0  0  0  0  0  0  0  0  0  0  0  0
  -10.0063    1.7661   -3.5746 H   0  0  0  0  0  0  0  0  0  0  0  0
   -9.9574    3.2149   -4.6181 H   0  0  0  0  0  0  0  0  0  0  0  0
   -8.5175    0.8674   -1.8834 H   0  0  0  0  0  0  0  0  0  0  0  0
  -10.0721    1.4389   -1.1554 H   0  0  0  0  0  0  0  0  0  0  0  0
   -8.8502    2.0714    0.9435 H   0  0  0  0  0  0  0  0  0  0  0  0
   -8.7796    0.3182    0.5636 H   0  0  0  0  0  0  0  0  0  0  0  0
   -6.4705    0.7005   -0.4929 H   0  0  0  0  0  0  0  0  0  0  0  0
   -6.5706    2.4084    0.0259 H   0  0  0  0  0  0  0  0  0  0  0  0
   -7.0895    1.2388    2.4682 H   0  0  0  0  0  0  0  0  0  0  0  0
   -5.4732    1.7015    1.8950 H   0  0  0  0  0  0  0  0  0  0  0  0
   -5.5183   -0.5524    2.8907 H   0  0  0  0  0  0  0  0  0  0  0  0
   -4.3427    0.0582    0.3121 H   0  0  0  0  0  0  0  0  0  0  0  0
   -1.9430   -2.8120    0.8112 H   0  0  0  0  0  0  0  0  0  0  0  0
   -3.3409   -1.3562   -1.5345 H   0  0  0  0  0  0  0  0  0  0  0  0
   -1.7948   -2.2355   -1.6260 H   0  0  0  0  0  0  0  0  0  0  0  0
   -5.4207   -2.5739   -1.6838 H   0  0  0  0  0  0  0  0  0  0  0  0
   -6.6146   -4.7027   -2.0242 H   0  0  0  0  0  0  0  0  0  0  0  0
   -5.0861   -8.0188   -1.8729 H   0  0  0  0  0  0  0  0  0  0  0  0
   -2.9522   -6.8682   -1.3873 H   0  0  0  0  0  0  0  0  0  0  0  0
   -1.7514   -4.7473   -1.0393 H   0  0  0  0  0  0  0  0  0  0  0  0
   -1.5960   -0.0898   -0.2182 H   0  0  0  0  0  0  0  0  0  0  0  0
   -0.1375    1.1207    3.0798 H   0  0  0  0  0  0  0  0  0  0  0  0
   -1.6299    2.8929    2.6532 H   0  0  0  0  0  0  0  0  0  0  0  0
   -2.6039    1.8222    1.4513 H   0  0  0  0  0  0  0  0  0  0  0  0
   -0.1608    3.4791    0.9078 H   0  0  0  0  0  0  0  0  0  0  0  0
   -1.0974    2.4028   -0.2690 H   0  0  0  0  0  0  0  0  0  0  0  0
    2.0594   -0.1117    2.2589 H   0  0  0  0  0  0  0  0  0  0  0  0
    2.7574   -2.2761    0.9294 H   0  0  0  0  0  0  0  0  0  0  0  0
    1.0705   -1.8992    1.2796 H   0  0  0  0  0  0  0  0  0  0  0  0
    0.6911   -1.0280   -1.0084 H   0  0  0  0  0  0  0  0  0  0  0  0
    0.5598   -3.1543   -2.1155 H   0  0  0  0  0  0  0  0  0  0  0  0
    0.2042   -3.3907   -0.3829 H   0  0  0  0  0  0  0  0  0  0  0  0
    2.2153   -4.5712    0.0192 H   0  0  0  0  0  0  0  0  0  0  0  0
    1.7910   -5.0861   -1.6391 H   0  0  0  0  0  0  0  0  0  0  0  0
    4.1148   -3.4153   -0.6598 H   0  0  0  0  0  0  0  0  0  0  0  0
    4.0187   -4.5625   -2.0294 H   0  0  0  0  0  0  0  0  0  0  0  0
    4.3722   -2.2515   -2.8505 H   0  0  0  0  0  0  0  0  0  0  0  0
    2.7745   -2.8707   -3.3805 H   0  0  0  0  0  0  0  0  0  0  0  0
    2.2407   -0.7143   -2.6379 H   0  0  0  0  0  0  0  0  0  0  0  0
    3.4493   -0.7104   -1.3520 H   0  0  0  0  0  0  0  0  0  0  0  0
    4.3941   -0.6445    0.6808 H   0  0  0  0  0  0  0  0  0  0  0  0
    6.3596    0.4763    1.3291 H   0  0  0  0  0  0  0  0  0  0  0  0
    6.2821    1.4546    3.6427 H   0  0  0  0  0  0  0  0  0  0  0  0
    6.0943    3.0914    2.9270 H   0  0  0  0  0  0  0  0  0  0  0  0
    8.5298    1.2940    3.0560 H   0  0  0  0  0  0  0  0  0  0  0  0
    8.3863    3.0702    3.2145 H   0  0  0  0  0  0  0  0  0  0  0  0
    8.6488    1.3111    0.7189 H   0  0  0  0  0  0  0  0  0  0  0  0
   10.6042    2.4996    1.7872 H   0  0  0  0  0  0  0  0  0  0  0  0
    9.8130    4.0832    1.4034 H   0  0  0  0  0  0  0  0  0  0  0  0
   11.3832    2.8080   -2.6883 H   0  0  0  0  0  0  0  0  0  0  0  0
   12.9165    3.6770   -2.3299 H   0  0  0  0  0  0  0  0  0  0  0  0
   13.3844    4.4943   -0.0528 H   0  0  0  0  0  0  0  0  0  0  0  0
   12.2293    4.2432    1.2863 H   0  0  0  0  0  0  0  0  0  0  0  0
    7.3391    4.1045    0.7301 H   0  0  0  0  0  0  0  0  0  0  0  0
    7.8605    3.2251   -0.7431 H   0  0  0  0  0  0  0  0  0  0  0  0
    5.3340    3.1100    0.1382 H   0  0  0  0  0  0  0  0  0  0  0  0
    6.1058    1.7023   -0.6528 H   0  0  0  0  0  0  0  0  0  0  0  0
   -7.7738   -1.3701    3.5323 H   0  0  0  0  0  0  0  0  0  0  0  0
   -8.6219   -2.4609    2.3798 H   0  0  0  0  0  0  0  0  0  0  0  0
  1  2  1  0
  2  3  1  0
  2  4  2  3
  4  5  1  0
  5  6  1  0
  6  7  1  0
  7  8  1  0
  8  9  1  0
  9 10  1  0
 10 11  1  0
 11 12  2  0
 11 13  1  0
 13 14  1  0
 14 15  1  0
 15 16  2  0
 16 17  1  0
 17 18  2  0
 18 19  1  0
 18 20  1  0
 20 21  2  0
 13 22  1  0
 22 23  1  0
 23 24  2  0
 23 25  1  0
 25 26  1  0
 26 27  1  0
 27 28  1  0
 28 29  1  0
 29 30  2  0
 29 31  1  0
 31 32  1  0
 32 33  1  0
 33 34  1  0
 34 35  1  0
 35 36  1  0
 36 37  1  0
 37 38  1  0
 31 39  1  0
 39 40  1  0
 40 41  2  0
 40 42  1  0
 42 43  1  0
 43 44  1  0
 44 45  1  0
 45 46  1  0
 46 47  1  0
 47 48  2  3
 48 49  1  0
 48 50  1  0
 45 51  1  0
 51 52  1  0
  9 53  1  0
 53 54  1  0
 53 55  2  0
 21 15  1  0
 28 25  1  0
 38 33  1  0
 52 42  1  0
  1 56  1  0
  1 57  1  0
  3 58  1  0
  3 59  1  0
  5 60  1  0
  5 61  1  0
  6 62  1  0
  6 63  1  0
  7 64  1  0
  7 65  1  0
  8 66  1  0
  8 67  1  0
  9 68  1  1
 10 69  1  0
 13 70  1  1
 14 71  1  0
 14 72  1  0
 16 73  1  0
 17 74  1  0
 19 75  1  0
 20 76  1  0
 21 77  1  0
 22 78  1  0
 25 79  1  1
 26 80  1  0
 26 81  1  0
 27 82  1  0
 27 83  1  0
 31 84  1  1
 32 85  1  0
 32 86  1  0
 33 87  1  0
 34 88  1  0
 34 89  1  0
 35 90  1  0
 35 91  1  0
 36 92  1  0
 36 93  1  0
 37 94  1  0
 37 95  1  0
 38 96  1  0
 38 97  1  0
 39 98  1  0
 42 99  1  6
 43100  1  0
 43101  1  0
 44102  1  0
 44103  1  0
 45104  1  6
 46105  1  0
 46106  1  0
 49107  1  0
 49108  1  0
 50109  1  0
 50110  1  0
 51111  1  0
 51112  1  0
 52113  1  0
 52114  1  0
 54115  1  0
 54116  1  0
M  END
$$$$
