
     RDKit          3D

 21 22  0  0  0  0  0  0  0  0999 V2000
   -4.4103    0.9013    0.4159 N   0  0  0  0  0  0  0  0  0  0  0  0
   -3.2833    0.0633    0.1764 C   0  0  0  0  0  0  0  0  0  0  0  0
   -2.0110    0.5086    0.2053 N   0  0  0  0  0  0  0  0  0  0  0  0
   -1.1172   -0.4870   -0.0557 C   0  0  0  0  0  0  0  0  0  0  0  0
   -1.7020   -1.7360   -0.2989 C   0  0  0  0  0  0  0  0  0  0  0  0
   -3.3730   -1.5733   -0.1765 S   0  0  0  0  0  0  0  0  0  0  0  0
    0.3462   -0.2250   -0.0832 C   0  0  0  0  0  0  0  0  0  0  0  0
    1.2848   -1.2767   -0.0786 C   0  0  0  0  0  0  0  0  0  0  0  0
    2.6562   -1.0050   -0.1024 C   0  0  0  0  0  0  0  0  0  0  0  0
    3.1135    0.3147   -0.1280 C   0  0  0  0  0  0  0  0  0  0  0  0
    4.4830    0.5686   -0.1523 O   0  0  0  0  0  0  0  0  0  0  0  0
    2.1915    1.3678   -0.1273 C   0  0  0  0  0  0  0  0  0  0  0  0
    0.8195    1.1012   -0.1029 C   0  0  0  0  0  0  0  0  0  0  0  0
   -4.2769    1.9146    0.6286 H   0  0  0  0  0  0  0  0  0  0  0  0
   -5.3767    0.5084    0.3805 H   0  0  0  0  0  0  0  0  0  0  0  0
   -1.1926   -2.6564   -0.5458 H   0  0  0  0  0  0  0  0  0  0  0  0
    0.9708   -2.3100   -0.0414 H   0  0  0  0  0  0  0  0  0  0  0  0
    3.3655   -1.8230   -0.0971 H   0  0  0  0  0  0  0  0  0  0  0  0
    4.8458    1.5146   -0.1706 H   0  0  0  0  0  0  0  0  0  0  0  0
    2.5366    2.3938   -0.1461 H   0  0  0  0  0  0  0  0  0  0  0  0
    0.1295    1.9356   -0.1070 H   0  0  0  0  0  0  0  0  0  0  0  0
  1  2  1  0
  2  3  2  0
  3  4  1  0
  4  5  2  0
  5  6  1  0
  4  7  1  0
  7  8  2  0
  8  9  1  0
  9 10  2  0
 10 11  1  0
 10 12  1  0
 12 13  2  0
  6  2  1  0
 13  7  1  0
  1 14  1  0
  1 15  1  0
  5 16  1  0
  8 17  1  0
  9 18  1  0
 11 19  1  0
 12 20  1  0
 13 21  1  0
M  END
$$$$
