
     RDKit          3D

 27 27  0  0  0  0  0  0  0  0999 V2000
    0.2304    1.2180    0.5001 C   0  0  2  0  0  0  0  0  0  0  0  0
    1.2317    2.0769    0.9789 O   0  0  0  0  0  0  0  0  0  0  0  0
   -0.4983    0.7329    1.6164 O   0  0  0  0  0  0  0  0  0  0  0  0
   -1.5858   -0.0947    1.2297 C   0  0  1  0  0  0  0  0  0  0  0  0
   -2.7065    0.7138    0.6146 C   0  0  0  0  0  0  0  0  0  0  0  0
   -3.4721    1.5405    1.4307 O   0  0  0  0  0  0  0  0  0  0  0  0
   -2.9361    0.6778   -0.6242 O   0  0  0  0  0  0  0  0  0  0  0  0
   -1.1147   -1.3215    0.4029 C   0  0  1  0  0  0  0  0  0  0  0  0
   -2.2135   -2.0520   -0.0798 O   0  0  0  0  0  0  0  0  0  0  0  0
   -0.2127   -0.8997   -0.7699 C   0  0  2  0  0  0  0  0  0  0  0  0
    0.3897   -2.0329   -1.3405 O   0  0  0  0  0  0  0  0  0  0  0  0
    0.8815    0.0547   -0.2739 C   0  0  1  0  0  0  0  0  0  0  0  0
    1.5738    0.5723   -1.3953 O   0  0  0  0  0  0  0  0  0  0  0  0
    3.2207    0.1736   -1.3108 S   0  0  0  0  0  6  0  0  0  0  0  0
    3.9169    0.8560    0.0616 O   0  0  0  0  0  0  0  0  0  0  0  0
    3.3939   -1.3207   -1.2918 O   0  0  0  0  0  0  0  0  0  0  0  0
    3.9139    0.7225   -2.5250 O   0  0  0  0  0  0  0  0  0  0  0  0
   -0.4435    1.7961   -0.1779 H   0  0  0  0  0  0  0  0  0  0  0  0
    1.4998    2.6644    0.2245 H   0  0  0  0  0  0  0  0  0  0  0  0
   -2.0087   -0.5121    2.1691 H   0  0  0  0  0  0  0  0  0  0  0  0
   -4.2201    2.1040    1.0443 H   0  0  0  0  0  0  0  0  0  0  0  0
   -0.5077   -1.9747    1.0745 H   0  0  0  0  0  0  0  0  0  0  0  0
   -2.6178   -2.5106    0.7025 H   0  0  0  0  0  0  0  0  0  0  0  0
   -0.8181   -0.3715   -1.5432 H   0  0  0  0  0  0  0  0  0  0  0  0
   -0.2930   -2.4623   -1.9195 H   0  0  0  0  0  0  0  0  0  0  0  0
    1.5284   -0.5061    0.4428 H   0  0  0  0  0  0  0  0  0  0  0  0
    3.8677    0.1550    0.7594 H   0  0  0  0  0  0  0  0  0  0  0  0
  1  2  1  0
  1  3  1  0
  3  4  1  0
  4  5  1  0
  5  6  1  0
  5  7  2  0
  4  8  1  0
  8  9  1  0
  8 10  1  0
 10 11  1  0
 10 12  1  0
 12 13  1  0
 13 14  1  0
 14 15  1  0
 14 16  2  0
 14 17  2  0
 12  1  1  0
  1 18  1  6
  2 19  1  0
  4 20  1  1
  6 21  1  0
  8 22  1  1
  9 23  1  0
 10 24  1  6
 11 25  1  0
 12 26  1  1
 15 27  1  0
M  END
$$$$
