
     RDKit          3D

 60 64  0  0  0  0  0  0  0  0999 V2000
    0.4832   -2.8358   -1.1667 C   0  0  0  0  0  0  0  0  0  0  0  0
   -0.1640   -1.7053   -0.5918 O   0  0  0  0  0  0  0  0  0  0  0  0
    0.5017   -0.6134   -0.0113 C   0  0  0  0  0  0  0  0  0  0  0  0
   -0.2739    0.4313    0.5127 C   0  0  0  0  0  0  0  0  0  0  0  0
   -1.6709    0.3306    0.4220 O   0  0  0  0  0  0  0  0  0  0  0  0
   -2.5880    1.3159    0.8929 C   0  0  0  0  0  0  0  0  0  0  0  0
   -4.0230    0.8677    0.6148 C   0  0  0  0  0  0  0  0  0  0  0  0
   -4.2993    0.7776   -0.9020 C   0  0  0  0  0  0  0  0  0  0  0  0
   -5.6721    0.3474   -1.2487 N   0  0  0  0  0  0  0  0  0  0  0  0
   -5.9804   -1.0288   -0.8140 C   0  0  0  0  0  0  0  0  0  0  0  0
   -7.2959   -1.4882   -1.4518 C   0  0  0  0  0  0  0  0  0  0  0  0
   -8.4327   -0.5220   -1.0964 C   0  0  0  0  0  0  0  0  0  0  0  0
   -8.0548    0.9229   -1.4450 C   0  0  0  0  0  0  0  0  0  0  0  0
   -6.7123    1.2964   -0.8073 C   0  0  0  0  0  0  0  0  0  0  0  0
    0.3574    1.5365    1.1116 C   0  0  0  0  0  0  0  0  0  0  0  0
    1.7511    1.6038    1.1816 C   0  0  0  0  0  0  0  0  0  0  0  0
    2.3433    2.6678    1.7825 N   0  0  0  0  0  0  0  0  0  0  0  0
    3.6929    2.7575    1.8743 C   0  0  0  0  0  0  0  0  0  0  0  0
    4.4769    1.7810    1.3532 N   0  0  0  0  0  0  0  0  0  0  0  0
    3.9460    0.6897    0.7361 C   0  0  0  0  0  0  0  0  0  0  0  0
    4.8291   -0.2909    0.1657 N   0  0  0  0  0  0  0  0  0  0  0  0
    6.1839   -0.4533    0.6109 C   0  0  0  0  0  0  0  0  0  0  0  0
    6.5215   -0.6458    1.9765 C   0  0  0  0  0  0  0  0  0  0  0  0
    5.2870   -0.7785    3.2229 Cl  0  0  0  0  0  0  0  0  0  0  0  0
    7.8758   -0.8038    2.3531 C   0  0  0  0  0  0  0  0  0  0  0  0
    8.8946   -0.7864    1.3847 C   0  0  0  0  0  0  0  0  0  0  0  0
    8.5236   -0.6195    0.0551 C   0  0  0  0  0  0  0  0  0  0  0  0
    7.2274   -0.4650   -0.3167 C   0  0  0  0  0  0  0  0  0  0  0  0
    7.1602   -0.3193   -1.6897 O   0  0  0  0  0  0  0  0  0  0  0  0
    8.4945   -0.3883   -2.2109 C   0  0  0  0  0  0  0  0  0  0  0  0
    9.3332   -0.5798   -1.0636 O   0  0  0  0  0  0  0  0  0  0  0  0
    2.5416    0.5680    0.6396 C   0  0  0  0  0  0  0  0  0  0  0  0
    1.9075   -0.5452    0.0578 C   0  0  0  0  0  0  0  0  0  0  0  0
    1.1297   -2.5173   -2.0117 H   0  0  0  0  0  0  0  0  0  0  0  0
    1.0879   -3.3617   -0.3980 H   0  0  0  0  0  0  0  0  0  0  0  0
   -0.2858   -3.5358   -1.5527 H   0  0  0  0  0  0  0  0  0  0  0  0
   -2.4599    1.4452    1.9895 H   0  0  0  0  0  0  0  0  0  0  0  0
   -2.3940    2.2882    0.3891 H   0  0  0  0  0  0  0  0  0  0  0  0
   -4.1793   -0.1179    1.1002 H   0  0  0  0  0  0  0  0  0  0  0  0
   -4.7059    1.6058    1.0840 H   0  0  0  0  0  0  0  0  0  0  0  0
   -4.1050    1.7694   -1.3664 H   0  0  0  0  0  0  0  0  0  0  0  0
   -3.5755    0.0728   -1.3669 H   0  0  0  0  0  0  0  0  0  0  0  0
   -5.1730   -1.7227   -1.1357 H   0  0  0  0  0  0  0  0  0  0  0  0
   -6.0755   -1.0878    0.2927 H   0  0  0  0  0  0  0  0  0  0  0  0
   -7.1760   -1.5318   -2.5566 H   0  0  0  0  0  0  0  0  0  0  0  0
   -7.5491   -2.5078   -1.0895 H   0  0  0  0  0  0  0  0  0  0  0  0
   -9.3501   -0.8092   -1.6538 H   0  0  0  0  0  0  0  0  0  0  0  0
   -8.6550   -0.5951   -0.0089 H   0  0  0  0  0  0  0  0  0  0  0  0
   -7.9831    1.0330   -2.5493 H   0  0  0  0  0  0  0  0  0  0  0  0
   -8.8458    1.6118   -1.0779 H   0  0  0  0  0  0  0  0  0  0  0  0
   -6.4482    2.3293   -1.1239 H   0  0  0  0  0  0  0  0  0  0  0  0
   -6.8223    1.2841    0.2996 H   0  0  0  0  0  0  0  0  0  0  0  0
   -0.2256    2.3461    1.5304 H   0  0  0  0  0  0  0  0  0  0  0  0
    4.1454    3.6119    2.3583 H   0  0  0  0  0  0  0  0  0  0  0  0
    4.5718   -0.7176   -0.7522 H   0  0  0  0  0  0  0  0  0  0  0  0
    8.1347   -0.9544    3.3934 H   0  0  0  0  0  0  0  0  0  0  0  0
    9.9329   -0.9101    1.6627 H   0  0  0  0  0  0  0  0  0  0  0  0
    8.7556    0.5619   -2.7221 H   0  0  0  0  0  0  0  0  0  0  0  0
    8.5908   -1.2502   -2.9041 H   0  0  0  0  0  0  0  0  0  0  0  0
    2.4950   -1.3648   -0.3262 H   0  0  0  0  0  0  0  0  0  0  0  0
  1  2  1  0
  2  3  1  0
  3  4  2  0
  4  5  1  0
  5  6  1  0
  6  7  1  0
  7  8  1  0
  8  9  1  0
  9 10  1  0
 10 11  1  0
 11 12  1  0
 12 13  1  0
 13 14  1  0
  4 15  1  0
 15 16  2  0
 16 17  1  0
 17 18  2  0
 18 19  1  0
 19 20  2  0
 20 21  1  0
 21 22  1  0
 22 23  2  0
 23 24  1  0
 23 25  1  0
 25 26  2  0
 26 27  1  0
 27 28  2  0
 28 29  1  0
 29 30  1  0
 30 31  1  0
 20 32  1  0
 32 33  2  0
 33  3  1  0
 14  9  1  0
 32 16  1  0
 28 22  1  0
 31 27  1  0
  1 34  1  0
  1 35  1  0
  1 36  1  0
  6 37  1  0
  6 38  1  0
  7 39  1  0
  7 40  1  0
  8 41  1  0
  8 42  1  0
 10 43  1  0
 10 44  1  0
 11 45  1  0
 11 46  1  0
 12 47  1  0
 12 48  1  0
 13 49  1  0
 13 50  1  0
 14 51  1  0
 14 52  1  0
 15 53  1  0
 18 54  1  0
 21 55  1  0
 25 56  1  0
 26 57  1  0
 30 58  1  0
 30 59  1  0
 33 60  1  0
M  END
$$$$
