
     RDKit          3D

 47 48  0  0  0  0  0  0  0  0999 V2000
   -2.3919   -3.9206    0.2179 C   0  0  0  0  0  0  0  0  0  0  0  0
   -2.4956   -2.5107    0.3866 O   0  0  0  0  0  0  0  0  0  0  0  0
   -1.6211   -1.5713   -0.1856 C   0  0  0  0  0  0  0  0  0  0  0  0
   -0.5387   -1.9632   -0.9954 C   0  0  0  0  0  0  0  0  0  0  0  0
    0.3085   -1.0123   -1.5720 C   0  0  0  0  0  0  0  0  0  0  0  0
    1.3360   -1.4613   -2.4044 O   0  0  0  0  0  0  0  0  0  0  0  0
    0.0946    0.3601   -1.3208 C   0  0  0  0  0  0  0  0  0  0  0  0
   -0.9942    0.7527   -0.5305 C   0  0  0  0  0  0  0  0  0  0  0  0
   -1.8421   -0.2011    0.0536 C   0  0  0  0  0  0  0  0  0  0  0  0
   -3.0145    0.2558    0.8863 C   0  0  0  0  0  0  0  0  0  0  0  0
   -4.2762    0.2932    0.0590 C   0  0  0  0  0  0  0  0  0  0  0  0
   -5.4775    0.6477    0.5619 C   0  0  0  0  0  0  0  0  0  0  0  0
   -6.6737    0.6499   -0.3542 C   0  0  0  0  0  0  0  0  0  0  0  0
   -5.6433    1.0378    2.0116 C   0  0  0  0  0  0  0  0  0  0  0  0
    0.9786    1.4055   -1.8785 C   0  0  0  0  0  0  0  0  0  0  0  0
    0.4753    2.2879   -2.6236 O   0  0  0  0  0  0  0  0  0  0  0  0
    2.4241    1.4791   -1.5745 C   0  0  0  0  0  0  0  0  0  0  0  0
    3.0035    0.7554   -0.6045 C   0  0  0  0  0  0  0  0  0  0  0  0
    4.4521    0.8087   -0.2895 C   0  0  0  0  0  0  0  0  0  0  0  0
    5.0288   -0.2702    0.4023 C   0  0  0  0  0  0  0  0  0  0  0  0
    6.3880   -0.2613    0.7288 C   0  0  0  0  0  0  0  0  0  0  0  0
    7.1889    0.8322    0.3779 C   0  0  0  0  0  0  0  0  0  0  0  0
    8.5446    0.8521    0.6975 O   0  0  0  0  0  0  0  0  0  0  0  0
    6.6222    1.9171   -0.2964 C   0  0  0  0  0  0  0  0  0  0  0  0
    5.2631    1.9120   -0.6257 C   0  0  0  0  0  0  0  0  0  0  0  0
   -1.4205   -4.2825    0.6161 H   0  0  0  0  0  0  0  0  0  0  0  0
   -3.2115   -4.4136    0.7796 H   0  0  0  0  0  0  0  0  0  0  0  0
   -2.4886   -4.1848   -0.8564 H   0  0  0  0  0  0  0  0  0  0  0  0
   -0.3529   -3.0087   -1.2003 H   0  0  0  0  0  0  0  0  0  0  0  0
    1.9422   -0.8348   -2.9178 H   0  0  0  0  0  0  0  0  0  0  0  0
   -1.1725    1.8076   -0.3546 H   0  0  0  0  0  0  0  0  0  0  0  0
   -2.8157    1.2678    1.3012 H   0  0  0  0  0  0  0  0  0  0  0  0
   -3.1501   -0.4327    1.7479 H   0  0  0  0  0  0  0  0  0  0  0  0
   -4.2122    0.0208   -0.9930 H   0  0  0  0  0  0  0  0  0  0  0  0
   -7.5979    0.9577    0.1776 H   0  0  0  0  0  0  0  0  0  0  0  0
   -6.8325   -0.3692   -0.7662 H   0  0  0  0  0  0  0  0  0  0  0  0
   -6.5027    1.3579   -1.1928 H   0  0  0  0  0  0  0  0  0  0  0  0
   -6.6959    1.3011    2.2447 H   0  0  0  0  0  0  0  0  0  0  0  0
   -5.3491    0.1920    2.6678 H   0  0  0  0  0  0  0  0  0  0  0  0
   -5.0111    1.9209    2.2414 H   0  0  0  0  0  0  0  0  0  0  0  0
    3.0125    2.1595   -2.1740 H   0  0  0  0  0  0  0  0  0  0  0  0
    2.4008    0.0622   -0.0309 H   0  0  0  0  0  0  0  0  0  0  0  0
    4.4273   -1.1265    0.6828 H   0  0  0  0  0  0  0  0  0  0  0  0
    6.8170   -1.1045    1.2552 H   0  0  0  0  0  0  0  0  0  0  0  0
    8.9845    0.0816    1.1870 H   0  0  0  0  0  0  0  0  0  0  0  0
    7.2350    2.7701   -0.5595 H   0  0  0  0  0  0  0  0  0  0  0  0
    4.8545    2.7828   -1.1187 H   0  0  0  0  0  0  0  0  0  0  0  0
  1  2  1  0
  2  3  1  0
  3  4  2  0
  4  5  1  0
  5  6  1  0
  5  7  2  0
  7  8  1  0
  8  9  2  0
  9 10  1  0
 10 11  1  0
 11 12  2  3
 12 13  1  0
 12 14  1  0
  7 15  1  0
 15 16  2  0
 15 17  1  0
 17 18  2  0
 18 19  1  0
 19 20  2  0
 20 21  1  0
 21 22  2  0
 22 23  1  0
 22 24  1  0
 24 25  2  0
  9  3  1  0
 25 19  1  0
  1 26  1  0
  1 27  1  0
  1 28  1  0
  4 29  1  0
  6 30  1  0
  8 31  1  0
 10 32  1  0
 10 33  1  0
 11 34  1  0
 13 35  1  0
 13 36  1  0
 13 37  1  0
 14 38  1  0
 14 39  1  0
 14 40  1  0
 17 41  1  0
 18 42  1  0
 20 43  1  0
 21 44  1  0
 23 45  1  0
 24 46  1  0
 25 47  1  0
M  END
$$$$
