
     RDKit          3D

 32 32  0  0  0  0  0  0  0  0999 V2000
    5.5082   -0.0212   -0.1489 C   0  0  0  0  0  0  0  0  0  0  0  0
    4.9254    1.3871   -0.1661 C   0  0  0  0  0  0  0  0  0  0  0  0
    3.5023    1.3409   -0.2454 O   0  0  0  0  0  0  0  0  0  0  0  0
    2.6807    1.0189    0.8407 C   0  0  0  0  0  0  0  0  0  0  0  0
    3.1734    0.7967    1.9805 O   0  0  0  0  0  0  0  0  0  0  0  0
    1.2053    0.8956    0.6331 C   0  0  0  0  0  0  0  0  0  0  0  0
    0.8495   -0.5173    0.1650 C   0  0  0  0  0  0  0  0  0  0  0  0
   -0.6341   -0.6436   -0.0550 C   0  0  0  0  0  0  0  0  0  0  0  0
   -1.1945   -0.3275   -1.3029 C   0  0  0  0  0  0  0  0  0  0  0  0
   -2.5763   -0.4128   -1.4974 C   0  0  0  0  0  0  0  0  0  0  0  0
   -3.4134   -0.8102   -0.4464 C   0  0  0  0  0  0  0  0  0  0  0  0
   -2.8592   -1.1052    0.8062 C   0  0  0  0  0  0  0  0  0  0  0  0
   -1.4776   -1.0204    1.0022 C   0  0  0  0  0  0  0  0  0  0  0  0
   -5.1556   -0.8985   -0.6869 S   0  0  0  0  0  6  0  0  0  0  0  0
   -5.8712    0.6303   -0.3153 N   0  0  0  0  0  0  0  0  0  0  0  0
   -5.7398   -1.9559    0.2074 O   0  0  0  0  0  0  0  0  0  0  0  0
   -5.4545   -1.2579   -2.1154 O   0  0  0  0  0  0  0  0  0  0  0  0
    5.1745   -0.5678    0.7577 H   0  0  0  0  0  0  0  0  0  0  0  0
    6.6171    0.0336   -0.1442 H   0  0  0  0  0  0  0  0  0  0  0  0
    5.1788   -0.5782   -1.0515 H   0  0  0  0  0  0  0  0  0  0  0  0
    5.3118    1.9219   -1.0591 H   0  0  0  0  0  0  0  0  0  0  0  0
    5.2456    1.9492    0.7381 H   0  0  0  0  0  0  0  0  0  0  0  0
    0.6756    1.1242    1.5841 H   0  0  0  0  0  0  0  0  0  0  0  0
    0.8844    1.6376   -0.1301 H   0  0  0  0  0  0  0  0  0  0  0  0
    1.3906   -0.7473   -0.7798 H   0  0  0  0  0  0  0  0  0  0  0  0
    1.1816   -1.2590    0.9251 H   0  0  0  0  0  0  0  0  0  0  0  0
   -0.5618   -0.0117   -2.1232 H   0  0  0  0  0  0  0  0  0  0  0  0
   -2.9925   -0.1629   -2.4650 H   0  0  0  0  0  0  0  0  0  0  0  0
   -3.4956   -1.3947    1.6327 H   0  0  0  0  0  0  0  0  0  0  0  0
   -1.0655   -1.2447    1.9783 H   0  0  0  0  0  0  0  0  0  0  0  0
   -5.4087    1.3400   -0.9267 H   0  0  0  0  0  0  0  0  0  0  0  0
   -5.6045    0.8608    0.6681 H   0  0  0  0  0  0  0  0  0  0  0  0
  1  2  1  0
  2  3  1  0
  3  4  1  0
  4  5  2  0
  4  6  1  0
  6  7  1  0
  7  8  1  0
  8  9  2  0
  9 10  1  0
 10 11  2  0
 11 12  1  0
 12 13  2  0
 11 14  1  0
 14 15  1  0
 14 16  2  0
 14 17  2  0
 13  8  1  0
  1 18  1  0
  1 19  1  0
  1 20  1  0
  2 21  1  0
  2 22  1  0
  6 23  1  0
  6 24  1  0
  7 25  1  0
  7 26  1  0
  9 27  1  0
 10 28  1  0
 12 29  1  0
 13 30  1  0
 15 31  1  0
 15 32  1  0
M  END
$$$$
