
     RDKit          3D

 17 17  0  0  0  0  0  0  0  0999 V2000
    3.8755   -0.4742    0.2166 O   0  0  0  0  0  0  0  0  0  0  0  0
    2.5032   -0.7049    0.1936 C   0  0  0  0  0  0  0  0  0  0  0  0
    2.0724   -1.8730   -0.0019 O   0  0  0  0  0  0  0  0  0  0  0  0
    1.5731    0.4132    0.4384 C   0  0  0  0  0  0  0  0  0  0  0  0
    2.0429    1.4985    0.8752 O   0  0  0  0  0  0  0  0  0  0  0  0
    0.1115    0.3002    0.2130 C   0  0  0  0  0  0  0  0  0  0  0  0
   -0.4084   -0.4747   -0.8414 C   0  0  0  0  0  0  0  0  0  0  0  0
   -1.7896   -0.5554   -1.0457 C   0  0  0  0  0  0  0  0  0  0  0  0
   -2.6642    0.1412   -0.2089 C   0  0  0  0  0  0  0  0  0  0  0  0
   -2.1593    0.9263    0.8299 C   0  0  0  0  0  0  0  0  0  0  0  0
   -0.7791    1.0113    1.0379 C   0  0  0  0  0  0  0  0  0  0  0  0
    4.5325   -1.2302    0.0639 H   0  0  0  0  0  0  0  0  0  0  0  0
    0.2487   -0.9972   -1.5240 H   0  0  0  0  0  0  0  0  0  0  0  0
   -2.1815   -1.1527   -1.8588 H   0  0  0  0  0  0  0  0  0  0  0  0
   -3.7327    0.0781   -0.3696 H   0  0  0  0  0  0  0  0  0  0  0  0
   -2.8376    1.4703    1.4745 H   0  0  0  0  0  0  0  0  0  0  0  0
   -0.4074    1.6232    1.8507 H   0  0  0  0  0  0  0  0  0  0  0  0
  1  2  1  0
  2  3  2  0
  2  4  1  0
  4  5  2  0
  4  6  1  0
  6  7  2  0
  7  8  1  0
  8  9  2  0
  9 10  1  0
 10 11  2  0
 11  6  1  0
  1 12  1  0
  7 13  1  0
  8 14  1  0
  9 15  1  0
 10 16  1  0
 11 17  1  0
M  END
$$$$
