
     RDKit          3D

 46 47  0  0  0  0  0  0  0  0999 V2000
   -4.0789   -2.8208    0.0273 C   0  0  0  0  0  0  0  0  0  0  0  0
   -4.4080   -1.4564   -0.2149 O   0  0  0  0  0  0  0  0  0  0  0  0
   -3.5034   -0.3843   -0.1531 C   0  0  0  0  0  0  0  0  0  0  0  0
   -2.1493   -0.6008    0.1682 C   0  0  0  0  0  0  0  0  0  0  0  0
   -1.2396    0.4649    0.2323 C   0  0  0  0  0  0  0  0  0  0  0  0
   -1.6922    1.7630   -0.0355 C   0  0  0  0  0  0  0  0  0  0  0  0
   -3.0390    2.0033   -0.3576 C   0  0  0  0  0  0  0  0  0  0  0  0
   -3.5163    3.2966   -0.6280 O   0  0  0  0  0  0  0  0  0  0  0  0
   -2.7179    4.4758   -0.6085 C   0  0  0  0  0  0  0  0  0  0  0  0
   -3.9498    0.9361   -0.4171 C   0  0  0  0  0  0  0  0  0  0  0  0
   -5.2806    1.2603   -0.7453 O   0  0  0  0  0  0  0  0  0  0  0  0
   -6.3718    0.3540   -0.8624 C   0  0  0  0  0  0  0  0  0  0  0  0
    0.2202    0.2236    0.5707 C   0  0  1  0  0  0  0  0  0  0  0  0
    0.3422   -0.3657    1.8431 O   0  0  0  0  0  0  0  0  0  0  0  0
    0.9172   -0.6162   -0.5201 C   0  0  0  0  0  0  0  0  0  0  0  0
    2.3934   -0.7461   -0.2468 C   0  0  0  0  0  0  0  0  0  0  0  0
    2.8907   -1.8531    0.4566 C   0  0  0  0  0  0  0  0  0  0  0  0
    4.2568   -1.9623    0.7388 C   0  0  0  0  0  0  0  0  0  0  0  0
    4.7119   -3.0816    1.4356 O   0  0  0  0  0  0  0  0  0  0  0  0
    5.1466   -0.9541    0.3237 C   0  0  0  0  0  0  0  0  0  0  0  0
    6.5124   -1.0904    0.6193 O   0  0  0  0  0  0  0  0  0  0  0  0
    7.5145   -0.1455    0.2583 C   0  0  0  0  0  0  0  0  0  0  0  0
    4.6424    0.1614   -0.3730 C   0  0  0  0  0  0  0  0  0  0  0  0
    3.2772    0.2642   -0.6508 C   0  0  0  0  0  0  0  0  0  0  0  0
   -4.9918   -3.4394   -0.0926 H   0  0  0  0  0  0  0  0  0  0  0  0
   -3.3182   -3.1664   -0.7042 H   0  0  0  0  0  0  0  0  0  0  0  0
   -3.7007   -2.9447    1.0640 H   0  0  0  0  0  0  0  0  0  0  0  0
   -1.7945   -1.6020    0.3657 H   0  0  0  0  0  0  0  0  0  0  0  0
   -0.9904    2.5847    0.0075 H   0  0  0  0  0  0  0  0  0  0  0  0
   -1.9067    4.4004   -1.3631 H   0  0  0  0  0  0  0  0  0  0  0  0
   -2.2875    4.6291    0.4036 H   0  0  0  0  0  0  0  0  0  0  0  0
   -3.3550    5.3486   -0.8588 H   0  0  0  0  0  0  0  0  0  0  0  0
   -6.5548   -0.1556    0.1069 H   0  0  0  0  0  0  0  0  0  0  0  0
   -6.1757   -0.3823   -1.6699 H   0  0  0  0  0  0  0  0  0  0  0  0
   -7.2842    0.9251   -1.1300 H   0  0  0  0  0  0  0  0  0  0  0  0
    0.7464    1.2027    0.6179 H   0  0  0  0  0  0  0  0  0  0  0  0
    0.0410   -1.3089    1.7784 H   0  0  0  0  0  0  0  0  0  0  0  0
    0.7695   -0.1289   -1.5093 H   0  0  0  0  0  0  0  0  0  0  0  0
    0.4553   -1.6253   -0.5884 H   0  0  0  0  0  0  0  0  0  0  0  0
    2.2165   -2.6335    0.7885 H   0  0  0  0  0  0  0  0  0  0  0  0
    5.6890   -3.2128    1.6679 H   0  0  0  0  0  0  0  0  0  0  0  0
    8.4998   -0.5078    0.6164 H   0  0  0  0  0  0  0  0  0  0  0  0
    7.3028    0.8359    0.7331 H   0  0  0  0  0  0  0  0  0  0  0  0
    7.5560   -0.0358   -0.8460 H   0  0  0  0  0  0  0  0  0  0  0  0
    5.2967    0.9569   -0.7021 H   0  0  0  0  0  0  0  0  0  0  0  0
    2.9078    1.1339   -1.1804 H   0  0  0  0  0  0  0  0  0  0  0  0
  1  2  1  0
  2  3  1  0
  3  4  2  0
  4  5  1  0
  5  6  2  0
  6  7  1  0
  7  8  1  0
  8  9  1  0
  7 10  2  0
 10 11  1  0
 11 12  1  0
  5 13  1  0
 13 14  1  0
 13 15  1  0
 15 16  1  0
 16 17  2  0
 17 18  1  0
 18 19  1  0
 18 20  2  0
 20 21  1  0
 21 22  1  0
 20 23  1  0
 23 24  2  0
 10  3  1  0
 24 16  1  0
  1 25  1  0
  1 26  1  0
  1 27  1  0
  4 28  1  0
  6 29  1  0
  9 30  1  0
  9 31  1  0
  9 32  1  0
 12 33  1  0
 12 34  1  0
 12 35  1  0
 13 36  1  1
 14 37  1  0
 15 38  1  0
 15 39  1  0
 17 40  1  0
 19 41  1  0
 22 42  1  0
 22 43  1  0
 22 44  1  0
 23 45  1  0
 24 46  1  0
M  END
$$$$
