
     RDKit          3D

 98105  0  0  0  0  0  0  0  0999 V2000
    4.5657   -1.5585    2.2600 C   0  0  2  0  0  0  0  0  0  0  0  0
    4.9009   -3.0493    2.2619 C   0  0  0  0  0  0  0  0  0  0  0  0
    4.2711   -2.4140    1.0237 C   0  0  1  0  0  0  0  0  0  0  0  0
    2.8553   -2.7484    0.8246 N   0  0  0  0  0  0  0  0  0  0  0  0
    2.0583   -2.1326   -0.1981 C   0  0  0  0  0  0  0  0  0  0  0  0
    2.5956   -1.7104   -1.2579 O   0  0  0  0  0  0  0  0  0  0  0  0
    0.5752   -1.9529   -0.0042 C   0  0  2  0  0  0  0  0  0  0  0  0
   -0.2486   -2.7670   -1.0069 C   0  0  0  0  0  0  0  0  0  0  0  0
   -1.3920   -1.8418   -1.4305 C   0  0  2  0  0  0  0  0  0  0  0  0
   -0.8338   -0.4311   -1.2490 C   0  0  0  0  0  0  0  0  0  0  0  0
    0.2098   -0.5668   -0.2501 N   0  0  0  0  0  0  0  0  0  0  0  0
    0.7189    0.5261    0.5280 C   0  0  0  0  0  0  0  0  0  0  0  0
    1.1404    0.3055    1.6963 O   0  0  0  0  0  0  0  0  0  0  0  0
    0.7295    1.9329   -0.0306 C   0  0  2  0  0  0  0  0  0  0  0  0
    1.8369    2.8128    0.5881 C   0  0  0  0  0  0  0  0  0  0  0  0
    3.2370    2.3328    0.1564 C   0  0  0  0  0  0  0  0  0  0  0  0
    4.3880    3.0681    0.8669 C   0  0  0  0  0  0  0  0  0  0  0  0
    4.4495    2.8746    2.3974 C   0  0  0  0  0  0  0  0  0  0  0  0
    4.4729    1.4069    2.8548 C   0  0  0  0  0  0  0  0  0  0  0  0
    5.7106    0.6800    2.3845 C   0  0  0  0  0  0  0  0  0  0  0  0
    5.7714   -0.6480    2.1820 C   0  0  0  0  0  0  0  0  0  0  0  0
   -0.5892    2.5565    0.1245 N   0  0  0  0  0  0  0  0  0  0  0  0
   -1.3362    2.5538    1.3531 C   0  0  0  0  0  0  0  0  0  0  0  0
   -0.7344    2.4392    2.4553 O   0  0  0  0  0  0  0  0  0  0  0  0
   -2.8108    2.6597    1.3274 C   0  0  0  0  0  0  0  0  0  0  0  0
   -3.5651    2.6533    2.5111 C   0  0  0  0  0  0  0  0  0  0  0  0
   -4.9197    2.7342    2.4433 N   0  0  0  0  0  0  0  0  0  0  0  0
   -5.5675    2.8271    1.2518 C   0  0  0  0  0  0  0  0  0  0  0  0
   -7.0614    2.8972    1.2262 C   0  0  0  0  0  0  0  0  0  0  0  0
   -4.8192    2.8183    0.0688 C   0  0  0  0  0  0  0  0  0  0  0  0
   -3.4653    2.7357    0.1362 N   0  0  0  0  0  0  0  0  0  0  0  0
   -2.5049   -2.0464   -0.5568 O   0  0  0  0  0  0  0  0  0  0  0  0
   -3.7527   -1.4299   -0.7268 C   0  0  0  0  0  0  0  0  0  0  0  0
   -4.0052   -0.7070   -1.8471 N   0  0  0  0  0  0  0  0  0  0  0  0
   -5.1869   -0.0796   -2.0623 C   0  0  0  0  0  0  0  0  0  0  0  0
   -6.2307   -0.1635   -1.1049 C   0  0  0  0  0  0  0  0  0  0  0  0
   -7.4440    0.5118   -1.3833 C   0  0  0  0  0  0  0  0  0  0  0  0
   -7.5972    1.2463   -2.5625 C   0  0  0  0  0  0  0  0  0  0  0  0
   -6.5576    1.3198   -3.4872 C   0  0  0  0  0  0  0  0  0  0  0  0
   -5.3570    0.6573   -3.2396 C   0  0  0  0  0  0  0  0  0  0  0  0
   -5.9999   -0.9119    0.0853 C   0  0  0  0  0  0  0  0  0  0  0  0
   -4.7390   -1.5476    0.2659 C   0  0  0  0  0  0  0  0  0  0  0  0
   -4.4806   -2.2795    1.4397 C   0  0  0  0  0  0  0  0  0  0  0  0
   -5.4527   -2.3910    2.4310 C   0  0  0  0  0  0  0  0  0  0  0  0
   -6.6916   -1.7798    2.2649 C   0  0  0  0  0  0  0  0  0  0  0  0
   -6.9697   -1.0499    1.1079 C   0  0  0  0  0  0  0  0  0  0  0  0
    5.1720   -2.3949   -0.1836 C   0  0  0  0  0  0  0  0  0  0  0  0
    5.6445   -3.4792   -0.6186 O   0  0  0  0  0  0  0  0  0  0  0  0
    5.4438   -1.1636   -0.8626 N   0  0  0  0  0  0  0  0  0  0  0  0
    6.3220   -1.1101   -2.3528 S   0  0  0  0  0  6  0  0  0  0  0  0
    7.5919   -1.9047   -2.2188 O   0  0  0  0  0  0  0  0  0  0  0  0
    6.6767    0.3180   -2.6563 O   0  0  0  0  0  0  0  0  0  0  0  0
    5.2782   -1.7356   -3.6673 C   0  0  0  0  0  0  0  0  0  0  0  0
    6.0282   -2.1895   -4.9078 C   0  0  0  0  0  0  0  0  0  0  0  0
    5.4269   -3.2186   -3.9627 C   0  0  0  0  0  0  0  0  0  0  0  0
    3.7209   -1.3215    2.9412 H   0  0  0  0  0  0  0  0  0  0  0  0
    5.9824   -3.2962    2.1843 H   0  0  0  0  0  0  0  0  0  0  0  0
    4.2216   -3.6573    2.8965 H   0  0  0  0  0  0  0  0  0  0  0  0
    2.3586   -3.3086    1.5539 H   0  0  0  0  0  0  0  0  0  0  0  0
    0.2785   -2.2285    1.0321 H   0  0  0  0  0  0  0  0  0  0  0  0
    0.3526   -3.0271   -1.9069 H   0  0  0  0  0  0  0  0  0  0  0  0
   -0.6270   -3.7075   -0.5499 H   0  0  0  0  0  0  0  0  0  0  0  0
   -1.6899   -2.0357   -2.4849 H   0  0  0  0  0  0  0  0  0  0  0  0
   -1.6183    0.2743   -0.9032 H   0  0  0  0  0  0  0  0  0  0  0  0
   -0.3920   -0.0612   -2.1991 H   0  0  0  0  0  0  0  0  0  0  0  0
    0.9422    1.8590   -1.1207 H   0  0  0  0  0  0  0  0  0  0  0  0
    1.7410    2.8037    1.6924 H   0  0  0  0  0  0  0  0  0  0  0  0
    1.7018    3.8628    0.2481 H   0  0  0  0  0  0  0  0  0  0  0  0
    3.3444    2.5069   -0.9366 H   0  0  0  0  0  0  0  0  0  0  0  0
    3.3429    1.2396    0.3063 H   0  0  0  0  0  0  0  0  0  0  0  0
    5.3474    2.7215    0.4250 H   0  0  0  0  0  0  0  0  0  0  0  0
    4.3080    4.1555    0.6506 H   0  0  0  0  0  0  0  0  0  0  0  0
    3.5864    3.3859    2.8726 H   0  0  0  0  0  0  0  0  0  0  0  0
    5.3595    3.3862    2.7803 H   0  0  0  0  0  0  0  0  0  0  0  0
    3.5466    0.9064    2.5181 H   0  0  0  0  0  0  0  0  0  0  0  0
    4.4649    1.3831    3.9652 H   0  0  0  0  0  0  0  0  0  0  0  0
    6.6327    1.2479    2.2947 H   0  0  0  0  0  0  0  0  0  0  0  0
    6.7365   -1.0725    1.9173 H   0  0  0  0  0  0  0  0  0  0  0  0
   -1.0619    2.8881   -0.7465 H   0  0  0  0  0  0  0  0  0  0  0  0
   -3.0869    2.5816    3.4792 H   0  0  0  0  0  0  0  0  0  0  0  0
   -7.4333    3.2172    0.2295 H   0  0  0  0  0  0  0  0  0  0  0  0
   -7.4818    1.8995    1.4660 H   0  0  0  0  0  0  0  0  0  0  0  0
   -7.4141    3.6278    1.9840 H   0  0  0  0  0  0  0  0  0  0  0  0
   -5.3035    2.8772   -0.8971 H   0  0  0  0  0  0  0  0  0  0  0  0
   -8.2860    0.4974   -0.7116 H   0  0  0  0  0  0  0  0  0  0  0  0
   -8.5283    1.7622   -2.7591 H   0  0  0  0  0  0  0  0  0  0  0  0
   -6.6828    1.8910   -4.3980 H   0  0  0  0  0  0  0  0  0  0  0  0
   -4.5543    0.7203   -3.9642 H   0  0  0  0  0  0  0  0  0  0  0  0
   -3.5258   -2.7658    1.5975 H   0  0  0  0  0  0  0  0  0  0  0  0
   -5.2447   -2.9546    3.3314 H   0  0  0  0  0  0  0  0  0  0  0  0
   -7.4437   -1.8719    3.0382 H   0  0  0  0  0  0  0  0  0  0  0  0
   -7.9490   -0.6057    1.0446 H   0  0  0  0  0  0  0  0  0  0  0  0
    5.0344   -0.2741   -0.5030 H   0  0  0  0  0  0  0  0  0  0  0  0
    4.2723   -1.2996   -3.8434 H   0  0  0  0  0  0  0  0  0  0  0  0
    7.1362   -2.1278   -4.8632 H   0  0  0  0  0  0  0  0  0  0  0  0
    5.4641   -2.0673   -5.8565 H   0  0  0  0  0  0  0  0  0  0  0  0
    4.5077   -3.7035   -4.3536 H   0  0  0  0  0  0  0  0  0  0  0  0
    6.1809   -3.7734   -3.3662 H   0  0  0  0  0  0  0  0  0  0  0  0
  1  2  1  0
  2  3  1  0
  3  4  1  0
  4  5  1  0
  5  6  2  0
  5  7  1  0
  7  8  1  0
  8  9  1  0
  9 10  1  0
 10 11  1  0
 11 12  1  0
 12 13  2  0
 12 14  1  0
 14 15  1  0
 15 16  1  0
 16 17  1  0
 17 18  1  0
 18 19  1  0
 19 20  1  0
 20 21  2  0
 14 22  1  0
 22 23  1  0
 23 24  2  0
 23 25  1  0
 25 26  2  0
 26 27  1  0
 27 28  2  0
 28 29  1  0
 28 30  1  0
 30 31  2  0
  9 32  1  0
 32 33  1  0
 33 34  2  0
 34 35  1  0
 35 36  2  0
 36 37  1  0
 37 38  2  0
 38 39  1  0
 39 40  2  0
 36 41  1  0
 41 42  2  0
 42 43  1  0
 43 44  2  0
 44 45  1  0
 45 46  2  0
  3 47  1  6
 47 48  2  0
 47 49  1  0
 49 50  1  0
 50 51  2  0
 50 52  2  0
 50 53  1  0
 53 54  1  0
 54 55  1  0
  3  1  1  0
 11  7  1  0
 31 25  1  0
 42 33  1  0
 55 53  1  0
 21  1  1  0
 40 35  1  0
 46 41  1  0
  1 56  1  1
  2 57  1  0
  2 58  1  0
  4 59  1  0
  7 60  1  1
  8 61  1  0
  8 62  1  0
  9 63  1  6
 10 64  1  0
 10 65  1  0
 14 66  1  6
 15 67  1  0
 15 68  1  0
 16 69  1  0
 16 70  1  0
 17 71  1  0
 17 72  1  0
 18 73  1  0
 18 74  1  0
 19 75  1  0
 19 76  1  0
 20 77  1  0
 21 78  1  0
 22 79  1  0
 26 80  1  0
 29 81  1  0
 29 82  1  0
 29 83  1  0
 30 84  1  0
 37 85  1  0
 38 86  1  0
 39 87  1  0
 40 88  1  0
 43 89  1  0
 44 90  1  0
 45 91  1  0
 46 92  1  0
 49 93  1  0
 53 94  1  0
 54 95  1  0
 54 96  1  0
 55 97  1  0
 55 98  1  0
M  END
$$$$
