
     RDKit          3D

 37 38  0  0  0  0  0  0  0  0999 V2000
    3.1114    0.5003   -0.6196 C   0  0  1  0  0  0  0  0  0  0  0  0
    2.8942    1.8729   -0.4252 O   0  0  0  0  0  0  0  0  0  0  0  0
    3.2457   -0.2323    0.7288 C   0  0  0  0  0  0  0  0  0  0  0  0
    4.4220    0.2796    1.5735 C   0  0  0  0  0  0  0  0  0  0  0  0
    5.7426   -0.0620    0.9544 C   0  0  0  0  0  0  0  0  0  0  0  0
    6.2182   -1.3681    1.0137 O   0  0  0  0  0  0  0  0  0  0  0  0
    6.4110    0.8256    0.3600 O   0  0  0  0  0  0  0  0  0  0  0  0
    2.0305   -0.0853   -1.4240 N   0  0  0  0  0  0  0  0  0  0  0  0
    0.6223   -0.0684   -1.1046 C   0  0  0  0  0  0  0  0  0  0  0  0
    0.0875    0.7342   -0.0778 C   0  0  0  0  0  0  0  0  0  0  0  0
   -1.2843    0.7210    0.1914 C   0  0  0  0  0  0  0  0  0  0  0  0
   -2.1513   -0.0858   -0.5604 C   0  0  0  0  0  0  0  0  0  0  0  0
   -1.6229   -0.8791   -1.5892 C   0  0  0  0  0  0  0  0  0  0  0  0
   -0.2518   -0.8681   -1.8583 C   0  0  0  0  0  0  0  0  0  0  0  0
   -3.5629   -0.0975   -0.2814 N   0  0  0  0  0  0  0  0  0  0  0  0
   -4.1844   -0.0765    0.9941 C   0  0  0  0  0  0  0  0  0  0  0  0
   -3.5412   -0.0899    2.0772 O   0  0  0  0  0  0  0  0  0  0  0  0
   -5.6749   -0.0888    0.9217 C   0  0  0  0  0  0  0  0  0  0  0  0
   -5.9735   -0.1437   -0.5896 C   0  0  0  0  0  0  0  0  0  0  0  0
   -4.6228   -0.1323   -1.2242 C   0  0  0  0  0  0  0  0  0  0  0  0
   -4.4409   -0.1118   -2.4706 O   0  0  0  0  0  0  0  0  0  0  0  0
    4.0678    0.3653   -1.1758 H   0  0  0  0  0  0  0  0  0  0  0  0
    2.9585    2.2979   -1.3200 H   0  0  0  0  0  0  0  0  0  0  0  0
    2.3173   -0.1093    1.3231 H   0  0  0  0  0  0  0  0  0  0  0  0
    3.3721   -1.3219    0.5435 H   0  0  0  0  0  0  0  0  0  0  0  0
    4.3742   -0.1945    2.5772 H   0  0  0  0  0  0  0  0  0  0  0  0
    4.3397    1.3782    1.7229 H   0  0  0  0  0  0  0  0  0  0  0  0
    7.1039   -1.6180    0.5905 H   0  0  0  0  0  0  0  0  0  0  0  0
    2.3234   -0.5853   -2.2945 H   0  0  0  0  0  0  0  0  0  0  0  0
    0.7108    1.3820    0.5184 H   0  0  0  0  0  0  0  0  0  0  0  0
   -1.6719    1.3601    0.9740 H   0  0  0  0  0  0  0  0  0  0  0  0
   -2.2678   -1.5236   -2.1720 H   0  0  0  0  0  0  0  0  0  0  0  0
    0.1323   -1.4938   -2.6543 H   0  0  0  0  0  0  0  0  0  0  0  0
   -6.0874    0.8376    1.3758 H   0  0  0  0  0  0  0  0  0  0  0  0
   -6.0774   -0.9860    1.4390 H   0  0  0  0  0  0  0  0  0  0  0  0
   -6.5570    0.7452   -0.9119 H   0  0  0  0  0  0  0  0  0  0  0  0
   -6.5129   -1.0780   -0.8554 H   0  0  0  0  0  0  0  0  0  0  0  0
  1  2  1  0
  1  3  1  0
  3  4  1  0
  4  5  1  0
  5  6  1  0
  5  7  2  0
  1  8  1  0
  8  9  1  0
  9 10  2  0
 10 11  1  0
 11 12  2  0
 12 13  1  0
 13 14  2  0
 12 15  1  0
 15 16  1  0
 16 17  2  0
 16 18  1  0
 18 19  1  0
 19 20  1  0
 20 21  2  0
 14  9  1  0
 20 15  1  0
  1 22  1  6
  2 23  1  0
  3 24  1  0
  3 25  1  0
  4 26  1  0
  4 27  1  0
  6 28  1  0
  8 29  1  0
 10 30  1  0
 11 31  1  0
 13 32  1  0
 14 33  1  0
 18 34  1  0
 18 35  1  0
 19 36  1  0
 19 37  1  0
M  END
$$$$
