
     RDKit          3D

 41 44  0  0  0  0  0  0  0  0999 V2000
    7.2370    0.8946    0.7625 N   0  0  0  0  0  0  0  0  0  0  0  0
    6.0380    1.3201    0.1027 C   0  0  0  0  0  0  0  0  0  0  0  0
    5.9615    2.5261   -0.3667 N   0  0  0  0  0  0  0  0  0  0  0  0
    4.8772    0.4055   -0.0354 C   0  0  0  0  0  0  0  0  0  0  0  0
    3.5703    0.9353   -0.1806 C   0  0  0  0  0  0  0  0  0  0  0  0
    2.5099    0.0430   -0.3097 C   0  0  0  0  0  0  0  0  0  0  0  0
    2.6992   -1.3036   -0.3075 C   0  0  0  0  0  0  0  0  0  0  0  0
    1.5192   -1.9176   -0.4535 N   0  0  0  0  0  0  0  0  0  0  0  0
    0.6271   -0.8969   -0.5303 C   0  0  0  0  0  0  0  0  0  0  0  0
    1.2050    0.3329   -0.4564 N   0  0  0  0  0  0  0  0  0  0  0  0
   -0.8216   -1.0992   -0.7517 C   0  0  0  0  0  0  0  0  0  0  0  0
   -1.2307   -2.1077   -1.6392 C   0  0  0  0  0  0  0  0  0  0  0  0
   -2.5807   -2.2915   -1.9319 C   0  0  0  0  0  0  0  0  0  0  0  0
   -3.5420   -1.4668   -1.3519 C   0  0  0  0  0  0  0  0  0  0  0  0
   -3.1654   -0.4548   -0.4547 C   0  0  0  0  0  0  0  0  0  0  0  0
   -4.2107    0.4062    0.1511 C   0  0  0  0  0  0  0  0  0  0  0  0
   -5.3562   -0.1678    0.7314 C   0  0  0  0  0  0  0  0  0  0  0  0
   -6.3456    0.6444    1.2943 C   0  0  0  0  0  0  0  0  0  0  0  0
   -6.2040    2.0342    1.2786 C   0  0  0  0  0  0  0  0  0  0  0  0
   -5.0737    2.6147    0.6979 C   0  0  0  0  0  0  0  0  0  0  0  0
   -4.0813    1.8068    0.1342 C   0  0  0  0  0  0  0  0  0  0  0  0
   -1.8013   -0.2875   -0.1259 C   0  0  0  0  0  0  0  0  0  0  0  0
   -1.4572    0.6478    0.8556 O   0  0  0  0  0  0  0  0  0  0  0  0
    3.9603   -1.8746   -0.1794 C   0  0  0  0  0  0  0  0  0  0  0  0
    5.0594   -1.0063   -0.0441 C   0  0  0  0  0  0  0  0  0  0  0  0
    8.0729    1.5196    0.7986 H   0  0  0  0  0  0  0  0  0  0  0  0
    7.2800   -0.0051    1.2889 H   0  0  0  0  0  0  0  0  0  0  0  0
    6.7541    3.2013   -0.2836 H   0  0  0  0  0  0  0  0  0  0  0  0
    3.3851    2.0022   -0.1822 H   0  0  0  0  0  0  0  0  0  0  0  0
    1.3339   -2.9448   -0.4913 H   0  0  0  0  0  0  0  0  0  0  0  0
   -0.5011   -2.7394   -2.1308 H   0  0  0  0  0  0  0  0  0  0  0  0
   -2.8819   -3.0658   -2.6257 H   0  0  0  0  0  0  0  0  0  0  0  0
   -4.5835   -1.6119   -1.6119 H   0  0  0  0  0  0  0  0  0  0  0  0
   -5.4781   -1.2437    0.7592 H   0  0  0  0  0  0  0  0  0  0  0  0
   -7.2220    0.1957    1.7438 H   0  0  0  0  0  0  0  0  0  0  0  0
   -6.9712    2.6612    1.7141 H   0  0  0  0  0  0  0  0  0  0  0  0
   -4.9681    3.6918    0.6807 H   0  0  0  0  0  0  0  0  0  0  0  0
   -3.2204    2.2743   -0.3274 H   0  0  0  0  0  0  0  0  0  0  0  0
   -0.5347    0.7150    1.2633 H   0  0  0  0  0  0  0  0  0  0  0  0
    4.0936   -2.9486   -0.1910 H   0  0  0  0  0  0  0  0  0  0  0  0
    6.0478   -1.4392    0.0279 H   0  0  0  0  0  0  0  0  0  0  0  0
  1  2  1  0
  2  3  2  3
  2  4  1  0
  4  5  2  0
  5  6  1  0
  6  7  2  0
  7  8  1  0
  8  9  1  0
  9 10  2  0
  9 11  1  0
 11 12  2  0
 12 13  1  0
 13 14  2  0
 14 15  1  0
 15 16  1  0
 16 17  2  0
 17 18  1  0
 18 19  2  0
 19 20  1  0
 20 21  2  0
 15 22  2  0
 22 23  1  0
  7 24  1  0
 24 25  2  0
 25  4  1  0
 10  6  1  0
 22 11  1  0
 21 16  1  0
  1 26  1  0
  1 27  1  0
  3 28  1  0
  5 29  1  0
  8 30  1  0
 12 31  1  0
 13 32  1  0
 14 33  1  0
 17 34  1  0
 18 35  1  0
 19 36  1  0
 20 37  1  0
 21 38  1  0
 23 39  1  0
 24 40  1  0
 25 41  1  0
M  END
$$$$
