
     RDKit          3D

 42 45  0  0  0  0  0  0  0  0999 V2000
    9.2519    0.2889   -0.1475 O   0  0  0  0  0  0  0  0  0  0  0  0
    7.9510    0.2721    0.2297 N   0  0  0  0  0  0  0  0  0  0  0  0
    6.9856   -0.4540   -0.5398 C   0  0  0  0  0  0  0  0  0  0  0  0
    7.3583   -1.0714   -1.5734 O   0  0  0  0  0  0  0  0  0  0  0  0
    5.5628   -0.4962   -0.1523 C   0  0  0  0  0  0  0  0  0  0  0  0
    4.9703    0.1191    0.9491 C   0  0  0  0  0  0  0  0  0  0  0  0
    3.5933   -0.1177    1.0459 C   0  0  0  0  0  0  0  0  0  0  0  0
    3.0931   -0.9102    0.0171 C   0  0  0  0  0  0  0  0  0  0  0  0
    4.3687   -1.3325   -0.9952 S   0  0  0  0  0  0  0  0  0  0  0  0
    1.7013   -1.3690   -0.1458 C   0  0  0  0  0  0  0  0  0  0  0  0
    1.4698   -2.3528   -0.8993 O   0  0  0  0  0  0  0  0  0  0  0  0
    0.6082   -0.7238    0.5343 N   0  0  0  0  0  0  0  0  0  0  0  0
   -0.5482   -1.5092    0.9879 C   0  0  0  0  0  0  0  0  0  0  0  0
   -1.7778   -1.1403    0.1503 C   0  0  0  0  0  0  0  0  0  0  0  0
   -1.8792    0.3165    0.0233 N   0  0  0  0  0  0  0  0  0  0  0  0
   -0.8587    1.1819    0.1884 C   0  0  0  0  0  0  0  0  0  0  0  0
    0.5163    0.7434    0.5932 C   0  0  0  0  0  0  0  0  0  0  0  0
   -1.2287    2.4721    0.0511 N   0  0  0  0  0  0  0  0  0  0  0  0
   -2.5465    2.4055   -0.2336 C   0  0  0  0  0  0  0  0  0  0  0  0
   -2.9506    1.0833   -0.2637 C   0  0  0  0  0  0  0  0  0  0  0  0
   -4.3288    0.6071   -0.5175 C   0  0  0  0  0  0  0  0  0  0  0  0
   -4.5689   -0.5153   -1.3291 C   0  0  0  0  0  0  0  0  0  0  0  0
   -5.8773   -0.9471   -1.5683 C   0  0  0  0  0  0  0  0  0  0  0  0
   -6.9562   -0.2586   -1.0085 C   0  0  0  0  0  0  0  0  0  0  0  0
   -6.7288    0.8677   -0.2141 C   0  0  0  0  0  0  0  0  0  0  0  0
   -5.4222    1.3034    0.0269 C   0  0  0  0  0  0  0  0  0  0  0  0
    9.3383    1.0890   -0.7263 H   0  0  0  0  0  0  0  0  0  0  0  0
    7.6782    0.7781    1.0998 H   0  0  0  0  0  0  0  0  0  0  0  0
    5.5032    0.7155    1.6756 H   0  0  0  0  0  0  0  0  0  0  0  0
    2.9933    0.2637    1.8602 H   0  0  0  0  0  0  0  0  0  0  0  0
   -0.7489   -1.2735    2.0557 H   0  0  0  0  0  0  0  0  0  0  0  0
   -0.3525   -2.6013    0.9154 H   0  0  0  0  0  0  0  0  0  0  0  0
   -1.6689   -1.5876   -0.8605 H   0  0  0  0  0  0  0  0  0  0  0  0
   -2.6902   -1.5487    0.6356 H   0  0  0  0  0  0  0  0  0  0  0  0
    0.7097    1.0829    1.6322 H   0  0  0  0  0  0  0  0  0  0  0  0
    1.2556    1.2164   -0.0885 H   0  0  0  0  0  0  0  0  0  0  0  0
   -3.1714    3.2708   -0.4116 H   0  0  0  0  0  0  0  0  0  0  0  0
   -3.7521   -1.0421   -1.8021 H   0  0  0  0  0  0  0  0  0  0  0  0
   -6.0551   -1.8113   -2.1951 H   0  0  0  0  0  0  0  0  0  0  0  0
   -7.9682   -0.5937   -1.1957 H   0  0  0  0  0  0  0  0  0  0  0  0
   -7.5653    1.4037    0.2154 H   0  0  0  0  0  0  0  0  0  0  0  0
   -5.2644    2.1751    0.6499 H   0  0  0  0  0  0  0  0  0  0  0  0
  1  2  1  0
  2  3  1  0
  3  4  2  0
  3  5  1  0
  5  6  2  0
  6  7  1  0
  7  8  2  0
  8  9  1  0
  8 10  1  0
 10 11  2  0
 10 12  1  0
 12 13  1  0
 13 14  1  0
 14 15  1  0
 15 16  1  0
 16 17  1  0
 16 18  2  0
 18 19  1  0
 19 20  2  0
 20 21  1  0
 21 22  2  0
 22 23  1  0
 23 24  2  0
 24 25  1  0
 25 26  2  0
  9  5  1  0
 17 12  1  0
 26 21  1  0
 20 15  1  0
  1 27  1  0
  2 28  1  0
  6 29  1  0
  7 30  1  0
 13 31  1  0
 13 32  1  0
 14 33  1  0
 14 34  1  0
 17 35  1  0
 17 36  1  0
 19 37  1  0
 22 38  1  0
 23 39  1  0
 24 40  1  0
 25 41  1  0
 26 42  1  0
M  END
$$$$
