
     RDKit          3D

 48 51  0  0  0  0  0  0  0  0999 V2000
    6.2597    0.6560    1.4040 C   0  0  0  0  0  0  0  0  0  0  0  0
    5.2788    0.0597    2.4236 C   0  0  0  0  0  0  0  0  0  0  0  0
    3.9000   -0.1191    1.9171 N   0  0  0  0  0  0  0  0  0  0  0  0
    3.2393    1.1533    1.5693 C   0  0  0  0  0  0  0  0  0  0  0  0
    1.7507    0.9068    1.3148 C   0  0  0  0  0  0  0  0  0  0  0  0
    1.5856   -0.1688    0.3301 N   0  0  0  0  0  0  0  0  0  0  0  0
    2.3414   -1.4110    0.5283 C   0  0  0  0  0  0  0  0  0  0  0  0
    3.8100   -1.0857    0.8062 C   0  0  0  0  0  0  0  0  0  0  0  0
    0.4583   -0.1597   -0.5631 C   0  0  0  0  0  0  0  0  0  0  0  0
   -0.8345    0.0664   -0.0697 C   0  0  0  0  0  0  0  0  0  0  0  0
   -1.9572    0.0689   -0.9305 C   0  0  0  0  0  0  0  0  0  0  0  0
   -1.7443   -0.1158   -2.3209 C   0  0  0  0  0  0  0  0  0  0  0  0
   -0.4411   -0.3421   -2.8045 C   0  0  0  0  0  0  0  0  0  0  0  0
    0.6470   -0.3676   -1.9338 C   0  0  0  0  0  0  0  0  0  0  0  0
    1.8945   -0.5546   -2.4342 F   0  0  0  0  0  0  0  0  0  0  0  0
   -2.8388   -0.0521   -3.2017 C   0  0  0  0  0  0  0  0  0  0  0  0
   -2.6608   -0.2275   -4.4393 O   0  0  0  0  0  0  0  0  0  0  0  0
   -4.1262    0.2193   -2.7031 C   0  0  0  0  0  0  0  0  0  0  0  0
   -4.2868    0.3865   -1.3204 C   0  0  0  0  0  0  0  0  0  0  0  0
   -3.2371    0.2571   -0.4526 N   0  0  0  0  0  0  0  0  0  0  0  0
   -3.5093    0.4284    0.9879 C   0  0  0  0  0  0  0  0  0  0  0  0
   -3.2474   -0.8215    1.8231 C   0  0  0  0  0  0  0  0  0  0  0  0
   -4.6727   -0.3981    1.5355 C   0  0  0  0  0  0  0  0  0  0  0  0
   -5.3142    0.3350   -3.5923 C   0  0  0  0  0  0  0  0  0  0  0  0
   -6.5740    0.5759   -3.0490 O   0  0  0  0  0  0  0  0  0  0  0  0
   -5.2018    0.2190   -4.8425 O   0  0  0  0  0  0  0  0  0  0  0  0
    6.3674   -0.0016    0.5178 H   0  0  0  0  0  0  0  0  0  0  0  0
    5.9424    1.6698    1.0863 H   0  0  0  0  0  0  0  0  0  0  0  0
    7.2596    0.7492    1.8775 H   0  0  0  0  0  0  0  0  0  0  0  0
    5.6735   -0.9218    2.7655 H   0  0  0  0  0  0  0  0  0  0  0  0
    5.2570    0.7145    3.3219 H   0  0  0  0  0  0  0  0  0  0  0  0
    3.6885    1.5986    0.6540 H   0  0  0  0  0  0  0  0  0  0  0  0
    3.3399    1.8813    2.4040 H   0  0  0  0  0  0  0  0  0  0  0  0
    1.2529    0.6163    2.2654 H   0  0  0  0  0  0  0  0  0  0  0  0
    1.2869    1.8473    0.9438 H   0  0  0  0  0  0  0  0  0  0  0  0
    2.2757   -2.0665   -0.3666 H   0  0  0  0  0  0  0  0  0  0  0  0
    1.9131   -1.9638    1.3924 H   0  0  0  0  0  0  0  0  0  0  0  0
    4.2651   -0.6720   -0.1209 H   0  0  0  0  0  0  0  0  0  0  0  0
    4.3376   -2.0282    1.0708 H   0  0  0  0  0  0  0  0  0  0  0  0
   -0.9461    0.2391    0.9908 H   0  0  0  0  0  0  0  0  0  0  0  0
   -0.2570   -0.4871   -3.8621 H   0  0  0  0  0  0  0  0  0  0  0  0
   -5.2724    0.6147   -0.9312 H   0  0  0  0  0  0  0  0  0  0  0  0
   -3.3050    1.4125    1.4607 H   0  0  0  0  0  0  0  0  0  0  0  0
   -2.9204   -1.7194    1.2557 H   0  0  0  0  0  0  0  0  0  0  0  0
   -2.9122   -0.6149    2.8613 H   0  0  0  0  0  0  0  0  0  0  0  0
   -5.1880   -1.0826    0.8285 H   0  0  0  0  0  0  0  0  0  0  0  0
   -5.1872    0.0485    2.4121 H   0  0  0  0  0  0  0  0  0  0  0  0
   -7.3906    0.6571   -3.6431 H   0  0  0  0  0  0  0  0  0  0  0  0
  1  2  1  0
  2  3  1  0
  3  4  1  0
  4  5  1  0
  5  6  1  0
  6  7  1  0
  7  8  1  0
  6  9  1  0
  9 10  2  0
 10 11  1  0
 11 12  2  0
 12 13  1  0
 13 14  2  0
 14 15  1  0
 12 16  1  0
 16 17  2  0
 16 18  1  0
 18 19  2  0
 19 20  1  0
 20 21  1  0
 21 22  1  0
 22 23  1  0
 18 24  1  0
 24 25  1  0
 24 26  2  0
  8  3  1  0
 14  9  1  0
 23 21  1  0
 20 11  1  0
  1 27  1  0
  1 28  1  0
  1 29  1  0
  2 30  1  0
  2 31  1  0
  4 32  1  0
  4 33  1  0
  5 34  1  0
  5 35  1  0
  7 36  1  0
  7 37  1  0
  8 38  1  0
  8 39  1  0
 10 40  1  0
 13 41  1  0
 19 42  1  0
 21 43  1  0
 22 44  1  0
 22 45  1  0
 23 46  1  0
 23 47  1  0
 25 48  1  0
M  END
$$$$
