
     RDKit          3D

 35 37  0  0  0  0  0  0  0  0999 V2000
   -3.3469   -1.6240   -1.2294 C   0  0  0  0  0  0  0  0  0  0  0  0
   -3.2742   -0.5356   -0.1569 C   0  0  0  0  0  0  0  0  0  0  0  0
   -3.7494   -1.0669    1.1983 C   0  0  0  0  0  0  0  0  0  0  0  0
   -1.9030   -0.0289   -0.0532 N   0  0  0  0  0  0  0  0  0  0  0  0
   -0.8848   -0.7121    0.4596 N   0  0  0  0  0  0  0  0  0  0  0  0
    0.2407    0.0343    0.3276 C   0  0  0  0  0  0  0  0  0  0  0  0
   -0.0920    1.2349   -0.2936 C   0  0  0  0  0  0  0  0  0  0  0  0
   -1.4305    1.1355   -0.5280 C   0  0  0  0  0  0  0  0  0  0  0  0
   -2.1324    2.0992   -1.1717 N   0  0  0  0  0  0  0  0  0  0  0  0
   -1.4661    3.2180   -1.5809 C   0  0  0  0  0  0  0  0  0  0  0  0
   -0.1298    3.3656   -1.3182 N   0  0  0  0  0  0  0  0  0  0  0  0
    0.5857    2.4009   -0.6666 C   0  0  0  0  0  0  0  0  0  0  0  0
    1.9481    2.6478   -0.3165 N   0  0  0  0  0  0  0  0  0  0  0  0
    1.5771   -0.4785    0.6742 C   0  0  0  0  0  0  0  0  0  0  0  0
    1.7864   -1.0937    1.9176 C   0  0  0  0  0  0  0  0  0  0  0  0
    3.0404   -1.6210    2.2396 C   0  0  0  0  0  0  0  0  0  0  0  0
    4.0873   -1.5543    1.3163 C   0  0  0  0  0  0  0  0  0  0  0  0
    3.8821   -0.9683    0.0630 C   0  0  0  0  0  0  0  0  0  0  0  0
    4.9303   -0.9198   -0.8531 O   0  0  0  0  0  0  0  0  0  0  0  0
    2.6246   -0.4392   -0.2612 C   0  0  0  0  0  0  0  0  0  0  0  0
   -2.6936   -2.4818   -0.9611 H   0  0  0  0  0  0  0  0  0  0  0  0
   -4.3916   -1.9854   -1.3394 H   0  0  0  0  0  0  0  0  0  0  0  0
   -3.0132   -1.2124   -2.2057 H   0  0  0  0  0  0  0  0  0  0  0  0
   -3.9569    0.2913   -0.4541 H   0  0  0  0  0  0  0  0  0  0  0  0
   -3.1288   -1.9293    1.5236 H   0  0  0  0  0  0  0  0  0  0  0  0
   -3.6768   -0.2647    1.9631 H   0  0  0  0  0  0  0  0  0  0  0  0
   -4.8093   -1.3926    1.1311 H   0  0  0  0  0  0  0  0  0  0  0  0
   -2.0009    4.0016   -2.0995 H   0  0  0  0  0  0  0  0  0  0  0  0
    2.4364    3.4888   -0.6963 H   0  0  0  0  0  0  0  0  0  0  0  0
    2.4259    2.1031    0.4325 H   0  0  0  0  0  0  0  0  0  0  0  0
    0.9822   -1.1565    2.6406 H   0  0  0  0  0  0  0  0  0  0  0  0
    3.2000   -2.0843    3.2047 H   0  0  0  0  0  0  0  0  0  0  0  0
    5.0560   -1.9648    1.5714 H   0  0  0  0  0  0  0  0  0  0  0  0
    4.8140   -0.5021   -1.7691 H   0  0  0  0  0  0  0  0  0  0  0  0
    2.4631   -0.0047   -1.2402 H   0  0  0  0  0  0  0  0  0  0  0  0
  1  2  1  0
  2  3  1  0
  2  4  1  0
  4  5  1  0
  5  6  2  0
  6  7  1  0
  7  8  2  0
  8  9  1  0
  9 10  2  0
 10 11  1  0
 11 12  2  0
 12 13  1  0
  6 14  1  0
 14 15  2  0
 15 16  1  0
 16 17  2  0
 17 18  1  0
 18 19  1  0
 18 20  2  0
  8  4  1  0
 20 14  1  0
 12  7  1  0
  1 21  1  0
  1 22  1  0
  1 23  1  0
  2 24  1  0
  3 25  1  0
  3 26  1  0
  3 27  1  0
 10 28  1  0
 13 29  1  0
 13 30  1  0
 15 31  1  0
 16 32  1  0
 17 33  1  0
 19 34  1  0
 20 35  1  0
M  END
$$$$
