
     RDKit          3D

 76 83  0  0  0  0  0  0  0  0999 V2000
   -1.6519   -1.6052    1.7948 C   0  0  2  0  0  0  0  0  0  0  0  0
   -1.4463   -2.9923    1.4902 O   0  0  0  0  0  0  0  0  0  0  0  0
   -2.0384   -3.3052    0.2824 C   0  0  0  0  0  0  0  0  0  0  0  0
   -2.7735   -2.2584   -0.1761 C   0  0  0  0  0  0  0  0  0  0  0  0
   -3.1968   -2.1789   -1.5015 C   0  0  0  0  0  0  0  0  0  0  0  0
   -3.5951   -0.8344   -2.0740 C   0  0  0  0  0  0  0  0  0  0  0  0
   -3.6733    0.3044   -1.0039 C   0  0  1  0  0  0  0  0  0  0  0  0
   -5.0419    0.2963   -0.4059 N   0  0  0  0  0  0  0  0  0  0  0  0
   -5.5372    1.5990    0.0895 C   0  0  0  0  0  0  0  0  0  0  0  0
   -5.7225    2.5885   -1.0706 C   0  0  0  0  0  0  0  0  0  0  0  0
   -6.1668    3.9778   -0.6363 C   0  0  0  0  0  0  0  0  0  0  0  0
   -4.7481    3.7565   -1.1319 C   0  0  0  0  0  0  0  0  0  0  0  0
   -5.3118   -0.8283    0.5255 C   0  0  0  0  0  0  0  0  0  0  0  0
   -4.1661   -1.0996    1.5198 C   0  0  0  0  0  0  0  0  0  0  0  0
   -2.7882   -1.1466    0.8168 C   0  0  1  0  0  0  0  0  0  0  0  0
   -2.5457    0.1868    0.0895 C   0  0  2  0  0  0  0  0  0  0  0  0
   -2.6408    1.2430    1.0177 O   0  0  0  0  0  0  0  0  0  0  0  0
   -1.1132    0.1942   -0.5002 C   0  0  0  0  0  0  0  0  0  0  0  0
   -0.0905   -0.0224    0.5915 C   0  0  0  0  0  0  0  0  0  0  0  0
    1.2230    0.6438    0.4448 C   0  0  0  0  0  0  0  0  0  0  0  0
    1.7475    0.7132   -0.6996 O   0  0  0  0  0  0  0  0  0  0  0  0
    1.8797    1.2365    1.5817 N   0  0  0  0  0  0  0  0  0  0  0  0
    3.2491    1.7814    1.5514 C   0  0  0  0  0  0  0  0  0  0  0  0
    3.6948    2.1214    2.9847 C   0  0  0  0  0  0  0  0  0  0  0  0
    3.2719    3.0681    0.7025 C   0  0  0  0  0  0  0  0  0  0  0  0
    4.2036    0.7478    0.9987 C   0  0  0  0  0  0  0  0  0  0  0  0
    5.3088    1.0325    0.2808 N   0  0  0  0  0  0  0  0  0  0  0  0
    5.8175   -0.1998    0.0673 C   0  0  0  0  0  0  0  0  0  0  0  0
    5.0678   -1.1679    0.6317 N   0  0  0  0  0  0  0  0  0  0  0  0
    4.0837   -0.5420    1.2003 O   0  0  0  0  0  0  0  0  0  0  0  0
    7.0577   -0.4572   -0.6951 C   0  0  0  0  0  0  0  0  0  0  0  0
    7.5261   -1.7716   -0.8736 C   0  0  0  0  0  0  0  0  0  0  0  0
    8.6993   -2.0117   -1.5958 C   0  0  0  0  0  0  0  0  0  0  0  0
    9.4147   -0.9454   -2.1456 C   0  0  0  0  0  0  0  0  0  0  0  0
    8.9583    0.3637   -1.9745 C   0  0  0  0  0  0  0  0  0  0  0  0
    7.7857    0.6094   -1.2532 C   0  0  0  0  0  0  0  0  0  0  0  0
   -0.3318   -0.8716    1.6190 C   0  0  0  0  0  0  0  0  0  0  0  0
    0.6777   -1.1351    2.5456 O   0  0  0  0  0  0  0  0  0  0  0  0
   -3.0277   -3.3180   -2.3122 C   0  0  0  0  0  0  0  0  0  0  0  0
   -2.3910   -4.4675   -1.7927 C   0  0  0  0  0  0  0  0  0  0  0  0
   -1.8564   -4.4553   -0.4892 C   0  0  0  0  0  0  0  0  0  0  0  0
   -1.1413   -5.5490   -0.0082 O   0  0  0  0  0  0  0  0  0  0  0  0
   -1.9698   -1.5045    2.8554 H   0  0  0  0  0  0  0  0  0  0  0  0
   -2.8412   -0.5515   -2.8404 H   0  0  0  0  0  0  0  0  0  0  0  0
   -4.5701   -0.9306   -2.5990 H   0  0  0  0  0  0  0  0  0  0  0  0
   -3.5134    1.2556   -1.5554 H   0  0  0  0  0  0  0  0  0  0  0  0
   -6.5475    1.4680    0.5346 H   0  0  0  0  0  0  0  0  0  0  0  0
   -4.8954    2.0023    0.8967 H   0  0  0  0  0  0  0  0  0  0  0  0
   -6.1652    2.2502   -2.0319 H   0  0  0  0  0  0  0  0  0  0  0  0
   -6.2363    4.1517    0.4593 H   0  0  0  0  0  0  0  0  0  0  0  0
   -6.8186    4.5045   -1.3649 H   0  0  0  0  0  0  0  0  0  0  0  0
   -4.5629    4.1455   -2.1552 H   0  0  0  0  0  0  0  0  0  0  0  0
   -3.9825    3.8094   -0.3299 H   0  0  0  0  0  0  0  0  0  0  0  0
   -5.5007   -1.7452   -0.0715 H   0  0  0  0  0  0  0  0  0  0  0  0
   -6.2503   -0.6647    1.0986 H   0  0  0  0  0  0  0  0  0  0  0  0
   -4.1689   -0.3098    2.3020 H   0  0  0  0  0  0  0  0  0  0  0  0
   -4.3642   -2.0660    2.0348 H   0  0  0  0  0  0  0  0  0  0  0  0
   -2.4785    2.0912    0.5281 H   0  0  0  0  0  0  0  0  0  0  0  0
   -0.9335    1.1700   -1.0029 H   0  0  0  0  0  0  0  0  0  0  0  0
   -0.9688   -0.5932   -1.2681 H   0  0  0  0  0  0  0  0  0  0  0  0
    1.3286    1.3192    2.4667 H   0  0  0  0  0  0  0  0  0  0  0  0
    3.6573    1.2146    3.6268 H   0  0  0  0  0  0  0  0  0  0  0  0
    3.0259    2.8901    3.4288 H   0  0  0  0  0  0  0  0  0  0  0  0
    4.7349    2.5143    2.9923 H   0  0  0  0  0  0  0  0  0  0  0  0
    4.2675    3.5596    0.7569 H   0  0  0  0  0  0  0  0  0  0  0  0
    3.0570    2.8509   -0.3642 H   0  0  0  0  0  0  0  0  0  0  0  0
    2.5080    3.7852    1.0727 H   0  0  0  0  0  0  0  0  0  0  0  0
    6.9871   -2.6128   -0.4561 H   0  0  0  0  0  0  0  0  0  0  0  0
    9.0539   -3.0257   -1.7292 H   0  0  0  0  0  0  0  0  0  0  0  0
   10.3225   -1.1334   -2.7043 H   0  0  0  0  0  0  0  0  0  0  0  0
    9.5135    1.1891   -2.4010 H   0  0  0  0  0  0  0  0  0  0  0  0
    7.4498    1.6318   -1.1328 H   0  0  0  0  0  0  0  0  0  0  0  0
    0.5329   -1.7781    3.3148 H   0  0  0  0  0  0  0  0  0  0  0  0
   -3.3424   -3.3011   -3.3479 H   0  0  0  0  0  0  0  0  0  0  0  0
   -2.2568   -5.3370   -2.4232 H   0  0  0  0  0  0  0  0  0  0  0  0
   -0.7425   -5.5508    0.9233 H   0  0  0  0  0  0  0  0  0  0  0  0
  1  2  1  0
  2  3  1  0
  3  4  2  0
  4  5  1  0
  5  6  1  0
  6  7  1  0
  7  8  1  0
  8  9  1  0
  9 10  1  0
 10 11  1  0
 11 12  1  0
  8 13  1  0
 13 14  1  0
 15 14  1  1
 15 16  1  0
 16 17  1  1
 16 18  1  0
 18 19  1  0
 19 20  1  0
 20 21  2  0
 20 22  1  0
 22 23  1  0
 23 24  1  0
 23 25  1  0
 23 26  1  0
 26 27  2  0
 27 28  1  0
 28 29  2  0
 29 30  1  0
 28 31  1  0
 31 32  2  0
 32 33  1  0
 33 34  2  0
 34 35  1  0
 35 36  2  0
 19 37  2  0
 37 38  1  0
  5 39  2  0
 39 40  1  0
 40 41  2  0
 41 42  1  0
 15  1  1  0
 30 26  1  0
 36 31  1  0
 37  1  1  0
 41  3  1  0
 15  4  1  0
 16  7  1  0
 12 10  1  0
  1 43  1  1
  6 44  1  0
  6 45  1  0
  7 46  1  6
  9 47  1  0
  9 48  1  0
 10 49  1  0
 11 50  1  0
 11 51  1  0
 12 52  1  0
 12 53  1  0
 13 54  1  0
 13 55  1  0
 14 56  1  0
 14 57  1  0
 17 58  1  0
 18 59  1  0
 18 60  1  0
 22 61  1  0
 24 62  1  0
 24 63  1  0
 24 64  1  0
 25 65  1  0
 25 66  1  0
 25 67  1  0
 32 68  1  0
 33 69  1  0
 34 70  1  0
 35 71  1  0
 36 72  1  0
 38 73  1  0
 39 74  1  0
 40 75  1  0
 42 76  1  0
M  END
$$$$
