
     RDKit          3D

 23 23  0  0  0  0  0  0  0  0999 V2000
   -1.2685   -1.1216    0.4298 C   0  0  1  0  0  0  0  0  0  0  0  0
   -1.4421   -2.2087   -0.4426 O   0  0  0  0  0  0  0  0  0  0  0  0
    0.1055   -1.0124    0.7804 O   0  0  0  0  0  0  0  0  0  0  0  0
    0.8320   -0.2826   -0.1899 C   0  0  2  0  0  0  0  0  0  0  0  0
    2.3309   -0.4925    0.0451 C   0  0  0  0  0  0  0  0  0  0  0  0
    2.6473   -1.8479   -0.1123 O   0  0  0  0  0  0  0  0  0  0  0  0
    0.4624    1.2217   -0.0959 C   0  0  1  0  0  0  0  0  0  0  0  0
    0.8281    1.8924   -1.2773 O   0  0  0  0  0  0  0  0  0  0  0  0
   -1.0495    1.4216    0.2133 C   0  0  2  0  0  0  0  0  0  0  0  0
   -1.2535    1.7499    1.5671 O   0  0  0  0  0  0  0  0  0  0  0  0
   -1.8761    0.1807   -0.1711 C   0  0  1  0  0  0  0  0  0  0  0  0
   -1.9347    0.0892   -1.5537 F   0  0  0  0  0  0  0  0  0  0  0  0
   -1.8140   -1.3369    1.3772 H   0  0  0  0  0  0  0  0  0  0  0  0
   -2.4124   -2.4204   -0.4463 H   0  0  0  0  0  0  0  0  0  0  0  0
    0.6068   -0.6685   -1.2130 H   0  0  0  0  0  0  0  0  0  0  0  0
    2.6004   -0.1636    1.0744 H   0  0  0  0  0  0  0  0  0  0  0  0
    2.9106    0.1107   -0.6894 H   0  0  0  0  0  0  0  0  0  0  0  0
    3.6232   -1.9237    0.0519 H   0  0  0  0  0  0  0  0  0  0  0  0
    1.0427    1.6850    0.7331 H   0  0  0  0  0  0  0  0  0  0  0  0
    0.2802    1.5205   -2.0170 H   0  0  0  0  0  0  0  0  0  0  0  0
   -1.4296    2.2808   -0.3821 H   0  0  0  0  0  0  0  0  0  0  0  0
   -0.8716    1.0210    2.1217 H   0  0  0  0  0  0  0  0  0  0  0  0
   -2.9182    0.3052    0.1966 H   0  0  0  0  0  0  0  0  0  0  0  0
  1  2  1  0
  1  3  1  0
  3  4  1  0
  4  5  1  0
  5  6  1  0
  4  7  1  0
  7  8  1  0
  7  9  1  0
  9 10  1  0
  9 11  1  0
 11 12  1  0
 11  1  1  0
  1 13  1  1
  2 14  1  0
  4 15  1  6
  5 16  1  0
  5 17  1  0
  6 18  1  0
  7 19  1  1
  8 20  1  0
  9 21  1  6
 10 22  1  0
 11 23  1  1
M  END
$$$$
