
     RDKit          3D

 14 15  0  0  0  0  0  0  0  0999 V2000
   -2.3783   -1.5353   -0.0052 O   0  0  0  0  0  0  0  0  0  0  0  0
   -1.5025   -0.4554   -0.0739 C   0  0  0  0  0  0  0  0  0  0  0  0
   -1.9776    0.8060   -0.2903 N   0  0  0  0  0  0  0  0  0  0  0  0
   -1.1315    1.8827   -0.3613 C   0  0  0  0  0  0  0  0  0  0  0  0
    0.2174    1.7144   -0.2157 N   0  0  0  0  0  0  0  0  0  0  0  0
    0.6886    0.4622   -0.0009 C   0  0  0  0  0  0  0  0  0  0  0  0
   -0.1292   -0.6126    0.0724 C   0  0  0  0  0  0  0  0  0  0  0  0
    0.6277   -1.7837    0.3020 N   0  0  0  0  0  0  0  0  0  0  0  0
    1.8608   -1.4593    0.3694 N   0  0  0  0  0  0  0  0  0  0  0  0
    2.0784   -0.0152    0.1909 C   0  0  0  0  0  0  0  0  0  0  0  0
   -2.0435   -2.4781    0.1547 H   0  0  0  0  0  0  0  0  0  0  0  0
   -1.5339    2.8714   -0.5336 H   0  0  0  0  0  0  0  0  0  0  0  0
    2.5293    0.4262    1.1044 H   0  0  0  0  0  0  0  0  0  0  0  0
    2.6943    0.1767   -0.7126 H   0  0  0  0  0  0  0  0  0  0  0  0
  1  2  1  0
  2  3  2  0
  3  4  1  0
  4  5  2  0
  5  6  1  0
  6  7  2  0
  7  8  1  0
  8  9  2  0
  9 10  1  0
  7  2  1  0
 10  6  1  0
  1 11  1  0
  4 12  1  0
 10 13  1  0
 10 14  1  0
M  END
$$$$
