
     RDKit          3D

 53 57  0  0  0  0  0  0  0  0999 V2000
   -4.4788    3.5615    0.3331 C   0  0  0  0  0  0  0  0  0  0  0  0
   -2.9778    3.3172    0.4344 C   0  0  0  0  0  0  0  0  0  0  0  0
   -2.5695    2.3078   -0.4852 O   0  0  0  0  0  0  0  0  0  0  0  0
   -2.7978    0.9426   -0.2784 C   0  0  0  0  0  0  0  0  0  0  0  0
   -3.3847    0.4496    0.8395 N   0  0  0  0  0  0  0  0  0  0  0  0
   -3.3438   -0.8768    0.6362 C   0  0  0  0  0  0  0  0  0  0  0  0
   -3.7397   -1.8610    1.5357 C   0  0  0  0  0  0  0  0  0  0  0  0
   -3.5407   -3.2005    1.1741 C   0  0  0  0  0  0  0  0  0  0  0  0
   -2.9881   -3.5260   -0.0803 C   0  0  0  0  0  0  0  0  0  0  0  0
   -2.6203   -2.5156   -0.9959 C   0  0  0  0  0  0  0  0  0  0  0  0
   -2.2606   -2.9172   -2.3626 C   0  0  0  0  0  0  0  0  0  0  0  0
   -1.3006   -3.9039   -2.5645 O   0  0  0  0  0  0  0  0  0  0  0  0
   -2.8832   -2.4369   -3.3474 O   0  0  0  0  0  0  0  0  0  0  0  0
   -2.7734   -1.1735   -0.5771 C   0  0  0  0  0  0  0  0  0  0  0  0
   -2.4027   -0.0090   -1.1639 N   0  0  0  0  0  0  0  0  0  0  0  0
   -1.4453    0.2373   -2.2501 C   0  0  0  0  0  0  0  0  0  0  0  0
   -0.0514    0.3482   -1.6910 C   0  0  0  0  0  0  0  0  0  0  0  0
    0.6771   -0.8090   -1.3774 C   0  0  0  0  0  0  0  0  0  0  0  0
    1.9388   -0.7108   -0.7865 C   0  0  0  0  0  0  0  0  0  0  0  0
    2.4846    0.5471   -0.4848 C   0  0  0  0  0  0  0  0  0  0  0  0
    1.7647    1.7056   -0.8155 C   0  0  0  0  0  0  0  0  0  0  0  0
    0.5025    1.6068   -1.4070 C   0  0  0  0  0  0  0  0  0  0  0  0
    3.8081    0.6523    0.1710 C   0  0  0  0  0  0  0  0  0  0  0  0
    4.8185    1.3835   -0.4784 C   0  0  0  0  0  0  0  0  0  0  0  0
    6.1095    1.4354    0.0487 C   0  0  0  0  0  0  0  0  0  0  0  0
    6.4108    0.7548    1.2270 C   0  0  0  0  0  0  0  0  0  0  0  0
    5.4179    0.0349    1.8936 C   0  0  0  0  0  0  0  0  0  0  0  0
    4.1051   -0.0106    1.3922 C   0  0  0  0  0  0  0  0  0  0  0  0
    3.0774   -0.7275    2.1833 C   0  0  0  0  0  0  0  0  0  0  0  0
    3.3170   -1.8354    2.9105 N   0  0  0  0  0  0  0  0  0  0  0  0
    2.1605   -2.1224    3.4917 N   0  0  0  0  0  0  0  0  0  0  0  0
    1.2481   -1.2252    3.1504 N   0  0  0  0  0  0  0  0  0  0  0  0
    1.7985   -0.3424    2.3373 N   0  0  0  0  0  0  0  0  0  0  0  0
   -5.0407    2.6486    0.6206 H   0  0  0  0  0  0  0  0  0  0  0  0
   -4.7691    4.3882    1.0151 H   0  0  0  0  0  0  0  0  0  0  0  0
   -4.7473    3.8419   -0.7074 H   0  0  0  0  0  0  0  0  0  0  0  0
   -2.4453    4.2587    0.1840 H   0  0  0  0  0  0  0  0  0  0  0  0
   -2.7014    3.0305    1.4724 H   0  0  0  0  0  0  0  0  0  0  0  0
   -4.1664   -1.6016    2.4960 H   0  0  0  0  0  0  0  0  0  0  0  0
   -3.8305   -3.9897    1.8556 H   0  0  0  0  0  0  0  0  0  0  0  0
   -2.8926   -4.5701   -0.3534 H   0  0  0  0  0  0  0  0  0  0  0  0
   -1.0634   -4.2144   -3.4990 H   0  0  0  0  0  0  0  0  0  0  0  0
   -1.7224    1.1758   -2.7783 H   0  0  0  0  0  0  0  0  0  0  0  0
   -1.4720   -0.5498   -3.0187 H   0  0  0  0  0  0  0  0  0  0  0  0
    0.2665   -1.7882   -1.5814 H   0  0  0  0  0  0  0  0  0  0  0  0
    2.4861   -1.6160   -0.5537 H   0  0  0  0  0  0  0  0  0  0  0  0
    2.1701    2.6849   -0.5921 H   0  0  0  0  0  0  0  0  0  0  0  0
   -0.0467    2.5123   -1.6324 H   0  0  0  0  0  0  0  0  0  0  0  0
    4.6124    1.8938   -1.4117 H   0  0  0  0  0  0  0  0  0  0  0  0
    6.8811    1.9944   -0.4648 H   0  0  0  0  0  0  0  0  0  0  0  0
    7.4148    0.7913    1.6300 H   0  0  0  0  0  0  0  0  0  0  0  0
    5.6706   -0.4675    2.8196 H   0  0  0  0  0  0  0  0  0  0  0  0
    1.3155    0.4962    1.9471 H   0  0  0  0  0  0  0  0  0  0  0  0
  1  2  1  0
  2  3  1  0
  3  4  1  0
  4  5  2  0
  5  6  1  0
  6  7  2  0
  7  8  1  0
  8  9  2  0
  9 10  1  0
 10 11  1  0
 11 12  1  0
 11 13  2  0
 10 14  2  0
 14 15  1  0
 15 16  1  0
 16 17  1  0
 17 18  2  0
 18 19  1  0
 19 20  2  0
 20 21  1  0
 21 22  2  0
 20 23  1  0
 23 24  2  0
 24 25  1  0
 25 26  2  0
 26 27  1  0
 27 28  2  0
 28 29  1  0
 29 30  2  0
 30 31  1  0
 31 32  2  0
 32 33  1  0
 15  4  1  0
 22 17  1  0
 28 23  1  0
 33 29  1  0
 14  6  1  0
  1 34  1  0
  1 35  1  0
  1 36  1  0
  2 37  1  0
  2 38  1  0
  7 39  1  0
  8 40  1  0
  9 41  1  0
 12 42  1  0
 16 43  1  0
 16 44  1  0
 18 45  1  0
 19 46  1  0
 21 47  1  0
 22 48  1  0
 24 49  1  0
 25 50  1  0
 26 51  1  0
 27 52  1  0
 33 53  1  0
M  END
$$$$
