
     RDKit          3D

 93 99  0  0  0  0  0  0  0  0999 V2000
  -12.0243   -1.1171    2.1257 C   0  0  2  0  0  0  0  0  0  0  0  0
  -12.5145   -1.9802    0.9541 C   0  0  0  0  0  0  0  0  0  0  0  0
  -13.0012   -1.0911    3.1349 O   0  0  0  0  0  0  0  0  0  0  0  0
  -11.6671    0.3342    1.7181 C   0  0  2  0  0  0  0  0  0  0  0  0
  -12.8644    1.1086    1.1182 C   0  0  0  0  0  0  0  0  0  0  0  0
  -12.5622    2.6003    0.9775 C   0  0  0  0  0  0  0  0  0  0  0  0
  -10.5129    0.3449    0.8078 N   0  0  0  0  0  0  0  0  0  0  0  0
  -10.5815    0.2621   -0.5136 N   0  0  0  0  0  0  0  0  0  0  0  0
   -9.3073    0.2274   -0.9601 C   0  0  0  0  0  0  0  0  0  0  0  0
   -8.4202    0.2807    0.0595 N   0  0  0  0  0  0  0  0  0  0  0  0
   -9.2118    0.3413    1.1485 C   0  0  0  0  0  0  0  0  0  0  0  0
   -8.7929    0.3495    2.3377 O   0  0  0  0  0  0  0  0  0  0  0  0
   -6.9821    0.2478   -0.0229 C   0  0  0  0  0  0  0  0  0  0  0  0
   -6.1922    0.9369    0.9121 C   0  0  0  0  0  0  0  0  0  0  0  0
   -4.7978    0.9063    0.8235 C   0  0  0  0  0  0  0  0  0  0  0  0
   -4.1607    0.1889   -0.2049 C   0  0  0  0  0  0  0  0  0  0  0  0
   -4.9536   -0.4968   -1.1419 C   0  0  0  0  0  0  0  0  0  0  0  0
   -6.3478   -0.4638   -1.0541 C   0  0  0  0  0  0  0  0  0  0  0  0
   -2.7186    0.1524   -0.2953 N   0  0  0  0  0  0  0  0  0  0  0  0
   -2.0452   -1.0854   -0.7187 C   0  0  0  0  0  0  0  0  0  0  0  0
   -0.5816   -1.1132   -0.2674 C   0  0  0  0  0  0  0  0  0  0  0  0
    0.1114    0.1214   -0.6636 N   0  0  0  0  0  0  0  0  0  0  0  0
   -0.6198    1.3980   -0.6884 C   0  0  0  0  0  0  0  0  0  0  0  0
   -1.9214    1.3174    0.1154 C   0  0  0  0  0  0  0  0  0  0  0  0
    1.5286    0.1014   -0.9474 C   0  0  0  0  0  0  0  0  0  0  0  0
    2.3884   -0.7664   -0.2496 C   0  0  0  0  0  0  0  0  0  0  0  0
    3.7585   -0.7806   -0.5235 C   0  0  0  0  0  0  0  0  0  0  0  0
    4.2991    0.0684   -1.4940 C   0  0  0  0  0  0  0  0  0  0  0  0
    5.6800    0.0162   -1.7282 O   0  0  0  0  0  0  0  0  0  0  0  0
    6.3730    0.8310   -2.6715 C   0  0  0  0  0  0  0  0  0  0  0  0
    7.8845    0.5371   -2.6423 C   0  0  2  0  0  0  0  0  0  0  0  0
    8.1932   -0.9268   -2.8706 C   0  0  0  0  0  0  0  0  0  0  0  0
    8.2730   -1.5553   -1.6175 O   0  0  0  0  0  0  0  0  0  0  0  0
    8.7669   -0.6109   -0.6830 C   0  0  2  0  0  0  0  0  0  0  0  0
    7.9630   -0.8255    0.6282 C   0  0  0  0  0  0  0  0  0  0  0  0
    8.4429   -0.0044    1.7405 N   0  0  0  0  0  0  0  0  0  0  0  0
    8.0051    1.2135    2.1015 C   0  0  0  0  0  0  0  0  0  0  0  0
    8.6530    1.6585    3.1952 N   0  0  0  0  0  0  0  0  0  0  0  0
    9.4957    0.6387    3.4703 C   0  0  0  0  0  0  0  0  0  0  0  0
    9.3728   -0.3809    2.5989 N   0  0  0  0  0  0  0  0  0  0  0  0
    8.5093    0.7981   -1.2889 C   0  0  0  0  0  0  0  0  0  0  0  0
   10.2618   -0.8824   -0.4208 C   0  0  0  0  0  0  0  0  0  0  0  0
   10.8189   -2.1740   -0.5998 C   0  0  0  0  0  0  0  0  0  0  0  0
   10.0637   -3.2206   -1.0188 F   0  0  0  0  0  0  0  0  0  0  0  0
   12.1690   -2.4112   -0.3212 C   0  0  0  0  0  0  0  0  0  0  0  0
   12.9802   -1.3875    0.1666 C   0  0  0  0  0  0  0  0  0  0  0  0
   14.2860   -1.6281    0.4409 F   0  0  0  0  0  0  0  0  0  0  0  0
   12.4405   -0.1234    0.3958 C   0  0  0  0  0  0  0  0  0  0  0  0
   11.0947    0.1260    0.1187 C   0  0  0  0  0  0  0  0  0  0  0  0
    3.4462    0.9397   -2.1951 C   0  0  0  0  0  0  0  0  0  0  0  0
    2.0754    0.9557   -1.9221 C   0  0  0  0  0  0  0  0  0  0  0  0
  -11.0966   -1.5864    2.5305 H   0  0  0  0  0  0  0  0  0  0  0  0
  -13.4714   -1.5927    0.5471 H   0  0  0  0  0  0  0  0  0  0  0  0
  -11.7555   -2.0190    0.1464 H   0  0  0  0  0  0  0  0  0  0  0  0
  -12.6868   -3.0194    1.3057 H   0  0  0  0  0  0  0  0  0  0  0  0
  -12.9756   -1.9755    3.5859 H   0  0  0  0  0  0  0  0  0  0  0  0
  -11.3759    0.8613    2.6553 H   0  0  0  0  0  0  0  0  0  0  0  0
  -13.7515    0.9983    1.7785 H   0  0  0  0  0  0  0  0  0  0  0  0
  -13.1321    0.7034    0.1192 H   0  0  0  0  0  0  0  0  0  0  0  0
  -13.4504    3.1210    0.5618 H   0  0  0  0  0  0  0  0  0  0  0  0
  -11.7053    2.7633    0.2904 H   0  0  0  0  0  0  0  0  0  0  0  0
  -12.3255    3.0418    1.9689 H   0  0  0  0  0  0  0  0  0  0  0  0
   -9.0398    0.1716   -2.0071 H   0  0  0  0  0  0  0  0  0  0  0  0
   -6.6505    1.5180    1.7007 H   0  0  0  0  0  0  0  0  0  0  0  0
   -4.2175    1.4364    1.5673 H   0  0  0  0  0  0  0  0  0  0  0  0
   -4.4964   -1.0501   -1.9514 H   0  0  0  0  0  0  0  0  0  0  0  0
   -6.9315   -1.0079   -1.7851 H   0  0  0  0  0  0  0  0  0  0  0  0
   -2.0874   -1.1646   -1.8264 H   0  0  0  0  0  0  0  0  0  0  0  0
   -2.5628   -1.9665   -0.2799 H   0  0  0  0  0  0  0  0  0  0  0  0
   -0.5335   -1.2220    0.8377 H   0  0  0  0  0  0  0  0  0  0  0  0
   -0.0921   -1.9973   -0.7317 H   0  0  0  0  0  0  0  0  0  0  0  0
    0.0107    2.2035   -0.2521 H   0  0  0  0  0  0  0  0  0  0  0  0
   -0.8566    1.6638   -1.7411 H   0  0  0  0  0  0  0  0  0  0  0  0
   -1.6868    1.2374    1.1990 H   0  0  0  0  0  0  0  0  0  0  0  0
   -2.4928    2.2562   -0.0546 H   0  0  0  0  0  0  0  0  0  0  0  0
    2.0044   -1.4235    0.5196 H   0  0  0  0  0  0  0  0  0  0  0  0
    4.4055   -1.4533    0.0253 H   0  0  0  0  0  0  0  0  0  0  0  0
    5.9825    0.6308   -3.6931 H   0  0  0  0  0  0  0  0  0  0  0  0
    6.2065    1.9046   -2.4346 H   0  0  0  0  0  0  0  0  0  0  0  0
    8.3761    1.1549   -3.4276 H   0  0  0  0  0  0  0  0  0  0  0  0
    7.4171   -1.4232   -3.4921 H   0  0  0  0  0  0  0  0  0  0  0  0
    9.1707   -1.0339   -3.3921 H   0  0  0  0  0  0  0  0  0  0  0  0
    6.8864   -0.6160    0.4553 H   0  0  0  0  0  0  0  0  0  0  0  0
    8.0294   -1.8963    0.9224 H   0  0  0  0  0  0  0  0  0  0  0  0
    7.2206    1.7625    1.5977 H   0  0  0  0  0  0  0  0  0  0  0  0
   10.1879    0.6385    4.3013 H   0  0  0  0  0  0  0  0  0  0  0  0
    7.8556    1.4324   -0.6552 H   0  0  0  0  0  0  0  0  0  0  0  0
    9.4461    1.3668   -1.4636 H   0  0  0  0  0  0  0  0  0  0  0  0
   12.5846   -3.3994   -0.4723 H   0  0  0  0  0  0  0  0  0  0  0  0
   13.0620    0.6642    0.8022 H   0  0  0  0  0  0  0  0  0  0  0  0
   10.7022    1.1056    0.3568 H   0  0  0  0  0  0  0  0  0  0  0  0
    3.8312    1.6065   -2.9543 H   0  0  0  0  0  0  0  0  0  0  0  0
    1.4409    1.6277   -2.4845 H   0  0  0  0  0  0  0  0  0  0  0  0
  1  2  1  0
  1  3  1  0
  1  4  1  0
  4  5  1  0
  5  6  1  0
  4  7  1  0
  7  8  1  0
  8  9  2  0
  9 10  1  0
 10 11  1  0
 11 12  2  0
 10 13  1  0
 13 14  2  0
 14 15  1  0
 15 16  2  0
 16 17  1  0
 17 18  2  0
 16 19  1  0
 19 20  1  0
 20 21  1  0
 21 22  1  0
 22 23  1  0
 23 24  1  0
 22 25  1  0
 25 26  2  0
 26 27  1  0
 27 28  2  0
 28 29  1  0
 29 30  1  0
 30 31  1  0
 31 32  1  0
 32 33  1  0
 33 34  1  0
 34 35  1  1
 35 36  1  0
 36 37  1  0
 37 38  2  0
 38 39  1  0
 39 40  2  0
 34 41  1  0
 34 42  1  0
 42 43  2  0
 43 44  1  0
 43 45  1  0
 45 46  2  0
 46 47  1  0
 46 48  1  0
 48 49  2  0
 28 50  1  0
 50 51  2  0
 11  7  1  0
 18 13  1  0
 24 19  1  0
 51 25  1  0
 41 31  1  0
 49 42  1  0
 40 36  1  0
  1 52  1  1
  2 53  1  0
  2 54  1  0
  2 55  1  0
  3 56  1  0
  4 57  1  1
  5 58  1  0
  5 59  1  0
  6 60  1  0
  6 61  1  0
  6 62  1  0
  9 63  1  0
 14 64  1  0
 15 65  1  0
 17 66  1  0
 18 67  1  0
 20 68  1  0
 20 69  1  0
 21 70  1  0
 21 71  1  0
 23 72  1  0
 23 73  1  0
 24 74  1  0
 24 75  1  0
 26 76  1  0
 27 77  1  0
 30 78  1  0
 30 79  1  0
 31 80  1  6
 32 81  1  0
 32 82  1  0
 35 83  1  0
 35 84  1  0
 37 85  1  0
 39 86  1  0
 41 87  1  0
 41 88  1  0
 45 89  1  0
 48 90  1  0
 49 91  1  0
 50 92  1  0
 51 93  1  0
M  END
$$$$
