
     RDKit          3D

 50 51  0  0  0  0  0  0  0  0999 V2000
   -0.4462   -1.6729    0.0225 C   0  0  2  0  0  0  0  0  0  0  0  0
    0.5457   -2.8066   -0.3451 C   0  0  0  0  0  0  0  0  0  0  0  0
    2.1753   -2.6071    0.3789 S   0  0  0  0  0  6  0  0  0  0  0  0
    2.1610   -3.0997    1.7993 O   0  0  0  0  0  0  0  0  0  0  0  0
    3.1605   -3.4353   -0.3969 O   0  0  0  0  0  0  0  0  0  0  0  0
    2.6828   -0.9205    0.3206 C   0  0  0  0  0  0  0  0  0  0  0  0
    2.9687   -0.3259   -0.9144 C   0  0  0  0  0  0  0  0  0  0  0  0
    3.3253    1.0237   -0.9801 C   0  0  0  0  0  0  0  0  0  0  0  0
    3.3982    1.7973    0.1843 C   0  0  0  0  0  0  0  0  0  0  0  0
    3.7550    3.1487    0.0657 O   0  0  0  0  0  0  0  0  0  0  0  0
    3.8579    4.0517    1.1617 C   0  0  0  0  0  0  0  0  0  0  0  0
    3.1107    1.1978    1.4259 C   0  0  0  0  0  0  0  0  0  0  0  0
    2.7543   -0.1526    1.4906 C   0  0  0  0  0  0  0  0  0  0  0  0
   -0.7798   -1.6487    1.5340 C   0  0  0  0  0  0  0  0  0  0  0  0
   -1.6502   -2.8392    1.9743 C   0  0  0  0  0  0  0  0  0  0  0  0
   -2.7484   -3.2093    0.9565 C   0  0  0  0  0  0  0  0  0  0  0  0
   -3.0192   -2.0827   -0.0449 C   0  0  0  0  0  0  0  0  0  0  0  0
   -1.7454   -1.7627   -0.8570 C   0  0  1  0  0  0  0  0  0  0  0  0
   -1.9534   -0.5066   -1.6701 C   0  0  0  0  0  0  0  0  0  0  0  0
   -2.0462   -0.5916   -2.9253 O   0  0  0  0  0  0  0  0  0  0  0  0
   -2.0489    0.7742   -1.0298 N   0  0  0  0  0  0  0  0  0  0  0  0
   -2.1723    2.0067   -1.8068 C   0  0  0  0  0  0  0  0  0  0  0  0
   -2.1931    3.2307   -0.8891 C   0  0  0  0  0  0  0  0  0  0  0  0
   -2.2881    4.4526   -1.6813 N   0  0  0  0  0  0  0  0  0  0  0  0
    0.0704   -0.7146   -0.2027 H   0  0  0  0  0  0  0  0  0  0  0  0
    0.1365   -3.7962   -0.0529 H   0  0  0  0  0  0  0  0  0  0  0  0
    0.6867   -2.8159   -1.4474 H   0  0  0  0  0  0  0  0  0  0  0  0
    2.9040   -0.9050   -1.8270 H   0  0  0  0  0  0  0  0  0  0  0  0
    3.5406    1.4729   -1.9413 H   0  0  0  0  0  0  0  0  0  0  0  0
    2.8775    4.1417    1.6754 H   0  0  0  0  0  0  0  0  0  0  0  0
    4.1529    5.0511    0.7816 H   0  0  0  0  0  0  0  0  0  0  0  0
    4.6328    3.6996    1.8751 H   0  0  0  0  0  0  0  0  0  0  0  0
    3.1552    1.7667    2.3445 H   0  0  0  0  0  0  0  0  0  0  0  0
    2.5263   -0.5928    2.4526 H   0  0  0  0  0  0  0  0  0  0  0  0
   -1.3270   -0.7083    1.7606 H   0  0  0  0  0  0  0  0  0  0  0  0
    0.1400   -1.6122    2.1503 H   0  0  0  0  0  0  0  0  0  0  0  0
   -1.0017   -3.7249    2.1496 H   0  0  0  0  0  0  0  0  0  0  0  0
   -2.1223   -2.5856    2.9485 H   0  0  0  0  0  0  0  0  0  0  0  0
   -3.6884   -3.4541    1.4968 H   0  0  0  0  0  0  0  0  0  0  0  0
   -2.4422   -4.1208    0.3972 H   0  0  0  0  0  0  0  0  0  0  0  0
   -3.8316   -2.3966   -0.7366 H   0  0  0  0  0  0  0  0  0  0  0  0
   -3.3779   -1.1853    0.5058 H   0  0  0  0  0  0  0  0  0  0  0  0
   -1.6342   -2.6012   -1.5825 H   0  0  0  0  0  0  0  0  0  0  0  0
   -2.0044    0.8222    0.0130 H   0  0  0  0  0  0  0  0  0  0  0  0
   -1.3103    2.0883   -2.5044 H   0  0  0  0  0  0  0  0  0  0  0  0
   -3.1118    1.9723   -2.4001 H   0  0  0  0  0  0  0  0  0  0  0  0
   -3.0572    3.1644   -0.1903 H   0  0  0  0  0  0  0  0  0  0  0  0
   -1.2549    3.2547   -0.2920 H   0  0  0  0  0  0  0  0  0  0  0  0
   -2.2195    5.2632   -1.0242 H   0  0  0  0  0  0  0  0  0  0  0  0
   -3.2439    4.4944   -2.1045 H   0  0  0  0  0  0  0  0  0  0  0  0
  1  2  1  0
  2  3  1  0
  3  4  2  0
  3  5  2  0
  3  6  1  0
  6  7  2  0
  7  8  1  0
  8  9  2  0
  9 10  1  0
 10 11  1  0
  9 12  1  0
 12 13  2  0
  1 14  1  0
 14 15  1  0
 15 16  1  0
 16 17  1  0
 17 18  1  0
 18 19  1  0
 19 20  2  0
 19 21  1  0
 21 22  1  0
 22 23  1  0
 23 24  1  0
 18  1  1  0
 13  6  1  0
  1 25  1  6
  2 26  1  0
  2 27  1  0
  7 28  1  0
  8 29  1  0
 11 30  1  0
 11 31  1  0
 11 32  1  0
 12 33  1  0
 13 34  1  0
 14 35  1  0
 14 36  1  0
 15 37  1  0
 15 38  1  0
 16 39  1  0
 16 40  1  0
 17 41  1  0
 17 42  1  0
 18 43  1  6
 21 44  1  0
 22 45  1  0
 22 46  1  0
 23 47  1  0
 23 48  1  0
 24 49  1  0
 24 50  1  0
M  END
$$$$
