
     RDKit          3D

 13 12  0  0  0  0  0  0  0  0999 V2000
    1.4173    0.0131    0.0902 C   0  0  0  0  0  0  0  0  0  0  0  0
    0.0247   -0.6178    0.1178 C   0  0  1  0  0  0  0  0  0  0  0  0
   -0.1239   -1.3580    1.3012 O   0  0  0  0  0  0  0  0  0  0  0  0
   -1.0790    0.4470    0.0135 C   0  0  0  0  0  0  0  0  0  0  0  0
   -1.0978    1.2655    1.1535 O   0  0  0  0  0  0  0  0  0  0  0  0
    2.1892   -0.7855    0.0978 H   0  0  0  0  0  0  0  0  0  0  0  0
    1.5488    0.6191   -0.8315 H   0  0  0  0  0  0  0  0  0  0  0  0
    1.5735    0.6610    0.9788 H   0  0  0  0  0  0  0  0  0  0  0  0
   -0.0550   -1.2970   -0.7629 H   0  0  0  0  0  0  0  0  0  0  0  0
   -0.8955   -1.9675    1.1628 H   0  0  0  0  0  0  0  0  0  0  0  0
   -2.0626   -0.0626   -0.0672 H   0  0  0  0  0  0  0  0  0  0  0  0
   -0.9479    1.0525   -0.9135 H   0  0  0  0  0  0  0  0  0  0  0  0
   -0.4918    2.0299    0.9698 H   0  0  0  0  0  0  0  0  0  0  0  0
  1  2  1  0
  2  3  1  0
  2  4  1  0
  4  5  1  0
  1  6  1  0
  1  7  1  0
  1  8  1  0
  2  9  1  6
  3 10  1  0
  4 11  1  0
  4 12  1  0
  5 13  1  0
M  END
$$$$
