
     RDKit          3D

 63 66  0  0  0  0  0  0  0  0999 V2000
   -5.3173   -1.0786   -1.0617 C   0  0  0  0  0  0  0  0  0  0  0  0
   -4.8948   -0.5954    0.3267 C   0  0  1  0  0  0  0  0  0  0  0  0
   -4.1403    0.5967    0.1680 O   0  0  0  0  0  0  0  0  0  0  0  0
   -3.6125    1.0568    1.4056 C   0  0  2  0  0  0  0  0  0  0  0  0
   -2.7443    0.1071    1.9937 O   0  0  0  0  0  0  0  0  0  0  0  0
   -1.2902    0.0130    1.0990 P   0  0  0  0  0  5  0  0  0  0  0  0
   -1.5919   -0.6293   -0.4408 O   0  0  0  0  0  0  0  0  0  0  0  0
   -0.3796   -0.9522    1.8221 O   0  0  0  0  0  0  0  0  0  0  0  0
   -0.5031    1.5335    1.0831 O   0  0  0  0  0  0  0  0  0  0  0  0
   -0.6504    2.2982   -0.4423 P   0  0  0  0  0  5  0  0  0  0  0  0
   -0.8524    3.9519   -0.1521 O   0  0  0  0  0  0  0  0  0  0  0  0
   -1.8462    1.8314   -1.2441 O   0  0  0  0  0  0  0  0  0  0  0  0
    0.7827    2.1153   -1.3525 O   0  0  0  0  0  0  0  0  0  0  0  0
    0.9987    0.7474   -1.5985 C   0  0  0  0  0  0  0  0  0  0  0  0
    2.2695    0.5853   -2.4366 C   0  0  1  0  0  0  0  0  0  0  0  0
    3.3756    1.1021   -1.7358 O   0  0  0  0  0  0  0  0  0  0  0  0
    4.5115    0.4470   -2.2517 C   0  0  2  0  0  0  0  0  0  0  0  0
    4.0832   -0.9111   -2.8313 C   0  0  2  0  0  0  0  0  0  0  0  0
    4.5641   -1.0878   -4.1441 O   0  0  0  0  0  0  0  0  0  0  0  0
    2.5649   -0.8788   -2.7559 C   0  0  2  0  0  0  0  0  0  0  0  0
    1.9671   -1.2717   -3.9653 O   0  0  0  0  0  0  0  0  0  0  0  0
    5.5163    0.2804   -1.1977 N   0  0  0  0  0  0  0  0  0  0  0  0
    6.8421    0.5623   -1.2883 C   0  0  0  0  0  0  0  0  0  0  0  0
    7.5381    0.2674   -0.1561 N   0  0  0  0  0  0  0  0  0  0  0  0
    6.5850   -0.2228    0.6577 C   0  0  0  0  0  0  0  0  0  0  0  0
    5.3808   -0.2211    0.0407 C   0  0  0  0  0  0  0  0  0  0  0  0
    4.2569   -0.6924    0.6394 N   0  0  0  0  0  0  0  0  0  0  0  0
    4.3590   -1.1744    1.9184 C   0  0  0  0  0  0  0  0  0  0  0  0
    3.2050   -1.6809    2.5877 N   0  0  0  0  0  0  0  0  0  0  0  0
    5.5724   -1.1776    2.5606 N   0  0  0  0  0  0  0  0  0  0  0  0
    6.7004   -0.7089    1.9515 C   0  0  0  0  0  0  0  0  0  0  0  0
    7.8072   -0.7233    2.5509 O   0  0  0  0  0  0  0  0  0  0  0  0
   -4.7456    1.4091    2.3861 C   0  0  1  0  0  0  0  0  0  0  0  0
   -5.4686    2.5023    1.8766 O   0  0  0  0  0  0  0  0  0  0  0  0
   -5.6758    0.1960    2.5833 C   0  0  1  0  0  0  0  0  0  0  0  0
   -6.7990    0.5577    3.3448 O   0  0  0  0  0  0  0  0  0  0  0  0
   -6.1301   -0.3515    1.2208 C   0  0  2  0  0  0  0  0  0  0  0  0
   -6.8244   -1.5593    1.4051 O   0  0  0  0  0  0  0  0  0  0  0  0
   -4.4167   -1.2363   -1.6926 H   0  0  0  0  0  0  0  0  0  0  0  0
   -5.8649   -2.0423   -0.9914 H   0  0  0  0  0  0  0  0  0  0  0  0
   -5.9676   -0.3245   -1.5545 H   0  0  0  0  0  0  0  0  0  0  0  0
   -4.2671   -1.4014    0.7716 H   0  0  0  0  0  0  0  0  0  0  0  0
   -3.0714    2.0117    1.2243 H   0  0  0  0  0  0  0  0  0  0  0  0
   -1.9346   -1.5432   -0.2739 H   0  0  0  0  0  0  0  0  0  0  0  0
   -0.0477    4.2173    0.3606 H   0  0  0  0  0  0  0  0  0  0  0  0
    0.1485    0.3166   -2.1733 H   0  0  0  0  0  0  0  0  0  0  0  0
    1.1329    0.1967   -0.6410 H   0  0  0  0  0  0  0  0  0  0  0  0
    2.1477    1.1608   -3.3839 H   0  0  0  0  0  0  0  0  0  0  0  0
    4.9374    1.0934   -3.0529 H   0  0  0  0  0  0  0  0  0  0  0  0
    4.4628   -1.7510   -2.2078 H   0  0  0  0  0  0  0  0  0  0  0  0
    4.2197   -0.3418   -4.7027 H   0  0  0  0  0  0  0  0  0  0  0  0
    2.2321   -1.5468   -1.9258 H   0  0  0  0  0  0  0  0  0  0  0  0
    1.0054   -1.4197   -3.7703 H   0  0  0  0  0  0  0  0  0  0  0  0
    7.3064    0.9763   -2.1741 H   0  0  0  0  0  0  0  0  0  0  0  0
    3.3396   -0.6937    0.1441 H   0  0  0  0  0  0  0  0  0  0  0  0
    3.2786   -2.0456    3.5632 H   0  0  0  0  0  0  0  0  0  0  0  0
    2.2777   -1.6988    2.1089 H   0  0  0  0  0  0  0  0  0  0  0  0
   -4.2870    1.6825    3.3661 H   0  0  0  0  0  0  0  0  0  0  0  0
   -5.9066    2.9459    2.6493 H   0  0  0  0  0  0  0  0  0  0  0  0
   -5.1133   -0.6082    3.1152 H   0  0  0  0  0  0  0  0  0  0  0  0
   -6.4854    0.6712    4.2800 H   0  0  0  0  0  0  0  0  0  0  0  0
   -6.7901    0.3984    0.7220 H   0  0  0  0  0  0  0  0  0  0  0  0
   -7.7506   -1.3216    1.6718 H   0  0  0  0  0  0  0  0  0  0  0  0
  1  2  1  0
  2  3  1  0
  3  4  1  0
  4  5  1  0
  5  6  1  0
  6  7  1  0
  6  8  2  0
  6  9  1  0
  9 10  1  0
 10 11  1  0
 10 12  2  0
 10 13  1  0
 13 14  1  0
 14 15  1  0
 15 16  1  0
 16 17  1  0
 17 18  1  0
 18 19  1  0
 18 20  1  0
 20 21  1  0
 17 22  1  0
 22 23  1  0
 23 24  2  0
 24 25  1  0
 25 26  2  0
 26 27  1  0
 27 28  1  0
 28 29  1  0
 28 30  2  0
 30 31  1  0
 31 32  2  0
  4 33  1  0
 33 34  1  0
 33 35  1  0
 35 36  1  0
 35 37  1  0
 37 38  1  0
 37  2  1  0
 20 15  1  0
 26 22  1  0
 31 25  1  0
  1 39  1  0
  1 40  1  0
  1 41  1  0
  2 42  1  1
  4 43  1  6
  7 44  1  0
 11 45  1  0
 14 46  1  0
 14 47  1  0
 15 48  1  6
 17 49  1  6
 18 50  1  1
 19 51  1  0
 20 52  1  1
 21 53  1  0
 23 54  1  0
 27 55  1  0
 29 56  1  0
 29 57  1  0
 33 58  1  1
 34 59  1  0
 35 60  1  1
 36 61  1  0
 37 62  1  6
 38 63  1  0
M  END
$$$$
