
     RDKit          3D

 40 41  0  0  0  0  0  0  0  0999 V2000
    5.4161   -1.2607    0.4379 C   0  0  0  0  0  0  0  0  0  0  0  0
    5.0777    0.1923    0.0660 C   0  0  0  0  0  0  0  0  0  0  0  0
    5.2053    1.1292    1.2736 C   0  0  0  0  0  0  0  0  0  0  0  0
    3.7607    0.3332   -0.5896 N   0  0  0  0  0  0  0  0  0  0  0  0
    2.6414   -0.2727    0.1497 C   0  0  0  0  0  0  0  0  0  0  0  0
    1.3056    0.2184   -0.4326 C   0  0  0  0  0  0  0  0  0  0  0  0
    1.2242    1.6216   -0.3788 O   0  0  0  0  0  0  0  0  0  0  0  0
    0.1146   -0.4199    0.2941 C   0  0  0  0  0  0  0  0  0  0  0  0
   -1.1016    0.0386   -0.2915 O   0  0  0  0  0  0  0  0  0  0  0  0
   -2.3871   -0.3445    0.1279 C   0  0  0  0  0  0  0  0  0  0  0  0
   -2.5781   -1.2477    1.1924 C   0  0  0  0  0  0  0  0  0  0  0  0
   -3.8646   -1.6138    1.5916 C   0  0  0  0  0  0  0  0  0  0  0  0
   -4.9808   -1.0894    0.9409 C   0  0  0  0  0  0  0  0  0  0  0  0
   -4.8188   -0.1892   -0.1207 C   0  0  0  0  0  0  0  0  0  0  0  0
   -3.5146    0.1887   -0.5333 C   0  0  0  0  0  0  0  0  0  0  0  0
   -3.3699    1.0945   -1.6014 C   0  0  0  0  0  0  0  0  0  0  0  0
   -4.4965    1.6133   -2.2454 C   0  0  0  0  0  0  0  0  0  0  0  0
   -5.7769    1.2378   -1.8352 C   0  0  0  0  0  0  0  0  0  0  0  0
   -5.9406    0.3406   -0.7776 C   0  0  0  0  0  0  0  0  0  0  0  0
    5.2706   -1.9235   -0.4412 H   0  0  0  0  0  0  0  0  0  0  0  0
    4.7808   -1.6199    1.2750 H   0  0  0  0  0  0  0  0  0  0  0  0
    6.4786   -1.3304    0.7547 H   0  0  0  0  0  0  0  0  0  0  0  0
    5.8474    0.5231   -0.6675 H   0  0  0  0  0  0  0  0  0  0  0  0
    4.8776    2.1535    0.9958 H   0  0  0  0  0  0  0  0  0  0  0  0
    4.5981    0.7752    2.1320 H   0  0  0  0  0  0  0  0  0  0  0  0
    6.2660    1.1788    1.6005 H   0  0  0  0  0  0  0  0  0  0  0  0
    3.8134   -0.1232   -1.5312 H   0  0  0  0  0  0  0  0  0  0  0  0
    2.6855   -1.3817    0.0646 H   0  0  0  0  0  0  0  0  0  0  0  0
    2.6813   -0.0013    1.2254 H   0  0  0  0  0  0  0  0  0  0  0  0
    1.2575   -0.0882   -1.5005 H   0  0  0  0  0  0  0  0  0  0  0  0
    1.2709    1.8891    0.5767 H   0  0  0  0  0  0  0  0  0  0  0  0
    0.1751   -1.5263    0.1990 H   0  0  0  0  0  0  0  0  0  0  0  0
    0.1378   -0.1431    1.3711 H   0  0  0  0  0  0  0  0  0  0  0  0
   -1.7365   -1.6748    1.7201 H   0  0  0  0  0  0  0  0  0  0  0  0
   -3.9967   -2.3088    2.4109 H   0  0  0  0  0  0  0  0  0  0  0  0
   -5.9703   -1.3873    1.2673 H   0  0  0  0  0  0  0  0  0  0  0  0
   -2.3899    1.4049   -1.9423 H   0  0  0  0  0  0  0  0  0  0  0  0
   -4.3761    2.3092   -3.0656 H   0  0  0  0  0  0  0  0  0  0  0  0
   -6.6452    1.6434   -2.3383 H   0  0  0  0  0  0  0  0  0  0  0  0
   -6.9424    0.0611   -0.4734 H   0  0  0  0  0  0  0  0  0  0  0  0
  1  2  1  0
  2  3  1  0
  2  4  1  0
  4  5  1  0
  5  6  1  0
  6  7  1  0
  6  8  1  0
  8  9  1  0
  9 10  1  0
 10 11  2  0
 11 12  1  0
 12 13  2  0
 13 14  1  0
 14 15  2  0
 15 16  1  0
 16 17  2  0
 17 18  1  0
 18 19  2  0
 15 10  1  0
 19 14  1  0
  1 20  1  0
  1 21  1  0
  1 22  1  0
  2 23  1  0
  3 24  1  0
  3 25  1  0
  3 26  1  0
  4 27  1  0
  5 28  1  0
  5 29  1  0
  6 30  1  0
  7 31  1  0
  8 32  1  0
  8 33  1  0
 11 34  1  0
 12 35  1  0
 13 36  1  0
 16 37  1  0
 17 38  1  0
 18 39  1  0
 19 40  1  0
M  END
$$$$
