
     RDKit          3D

 35 35  0  0  0  0  0  0  0  0999 V2000
   -5.1276   -3.0192    0.1364 N   0  0  0  0  0  0  0  0  0  0  0  0
   -4.7807   -1.6597    0.3992 C   0  0  0  0  0  0  0  0  0  0  0  0
   -5.7935   -0.7608    0.8666 N   0  0  0  0  0  0  0  0  0  0  0  0
   -3.5669   -1.2605    0.1463 N   0  0  0  0  0  0  0  0  0  0  0  0
   -2.9972    0.0233    0.4328 C   0  0  0  0  0  0  0  0  0  0  0  0
   -1.9819    0.5362   -0.2927 N   0  0  0  0  0  0  0  0  0  0  0  0
   -1.5055    1.6911    0.2475 C   0  0  0  0  0  0  0  0  0  0  0  0
   -0.3718    2.4440   -0.3752 C   0  0  0  0  0  0  0  0  0  0  0  0
    1.1498    2.2568    0.6218 S   0  0  0  0  0  0  0  0  0  0  0  0
    1.5989    0.5844    0.0329 C   0  0  0  0  0  0  0  0  0  0  0  0
    2.4485    0.6700   -1.2364 C   0  0  0  0  0  0  0  0  0  0  0  0
    2.8873   -0.7065   -1.6745 C   0  0  0  0  0  0  0  0  0  0  0  0
    1.9259   -1.5566   -2.3028 N   0  0  0  0  0  0  0  0  0  0  0  0
    4.0885   -1.1706   -1.4748 N   0  0  0  0  0  0  0  0  0  0  0  0
    5.4301   -0.3494   -0.7349 S   0  0  0  0  0  6  0  0  0  0  0  0
    5.0925    0.0100    0.9234 N   0  0  0  0  0  0  0  0  0  0  0  0
    5.7442    0.9128   -1.4886 O   0  0  0  0  0  0  0  0  0  0  0  0
    6.6294   -1.2520   -0.7925 O   0  0  0  0  0  0  0  0  0  0  0  0
   -2.1167    2.0861    1.4357 C   0  0  0  0  0  0  0  0  0  0  0  0
   -3.2910    0.9441    1.8147 S   0  0  0  0  0  0  0  0  0  0  0  0
   -4.4129   -3.6891   -0.2260 H   0  0  0  0  0  0  0  0  0  0  0  0
   -6.0998   -3.3609    0.3039 H   0  0  0  0  0  0  0  0  0  0  0  0
   -5.7050    0.2725    0.7599 H   0  0  0  0  0  0  0  0  0  0  0  0
   -6.7185   -1.1358    1.1725 H   0  0  0  0  0  0  0  0  0  0  0  0
   -0.6332    3.5222   -0.4156 H   0  0  0  0  0  0  0  0  0  0  0  0
   -0.2060    2.1010   -1.4175 H   0  0  0  0  0  0  0  0  0  0  0  0
    0.6919   -0.0294   -0.1469 H   0  0  0  0  0  0  0  0  0  0  0  0
    2.1808    0.0887    0.8367 H   0  0  0  0  0  0  0  0  0  0  0  0
    3.3040    1.3514   -1.0717 H   0  0  0  0  0  0  0  0  0  0  0  0
    1.8457    1.1189   -2.0534 H   0  0  0  0  0  0  0  0  0  0  0  0
    2.1879   -2.5215   -2.6044 H   0  0  0  0  0  0  0  0  0  0  0  0
    0.9495   -1.2262   -2.4705 H   0  0  0  0  0  0  0  0  0  0  0  0
    4.5273    0.8871    0.9512 H   0  0  0  0  0  0  0  0  0  0  0  0
    4.4903   -0.7608    1.2896 H   0  0  0  0  0  0  0  0  0  0  0  0
   -1.8641    2.9584    2.0237 H   0  0  0  0  0  0  0  0  0  0  0  0
  1  2  1  0
  2  3  1  0
  2  4  2  3
  4  5  1  0
  5  6  2  0
  6  7  1  0
  7  8  1  0
  8  9  1  0
  9 10  1  0
 10 11  1  0
 11 12  1  0
 12 13  1  0
 12 14  2  3
 14 15  1  0
 15 16  1  0
 15 17  2  0
 15 18  2  0
  7 19  2  0
 19 20  1  0
 20  5  1  0
  1 21  1  0
  1 22  1  0
  3 23  1  0
  3 24  1  0
  8 25  1  0
  8 26  1  0
 10 27  1  0
 10 28  1  0
 11 29  1  0
 11 30  1  0
 13 31  1  0
 13 32  1  0
 16 33  1  0
 16 34  1  0
 19 35  1  0
M  END
$$$$
