
     RDKit          3D

 35 34  0  0  0  0  0  0  0  0999 V2000
   -5.6226    0.8413    1.1239 C   0  0  0  0  0  0  0  0  0  0  0  0
   -4.7399   -0.3900    0.9407 C   0  0  0  0  0  0  0  0  0  0  0  0
   -3.4740   -0.0512    0.1450 C   0  0  0  0  0  0  0  0  0  0  0  0
   -2.5848   -1.2919   -0.0262 C   0  0  0  0  0  0  0  0  0  0  0  0
   -1.3713   -1.0308   -0.9325 C   0  0  0  0  0  0  0  0  0  0  0  0
   -0.3200   -0.1285   -0.2691 C   0  0  0  0  0  0  0  0  0  0  0  0
    0.9301   -0.0050   -1.1482 C   0  0  0  0  0  0  0  0  0  0  0  0
    1.9730    0.9050   -0.4958 C   0  0  0  0  0  0  0  0  0  0  0  0
    3.4437    1.0670   -1.5712 S   0  0  0  0  0  0  0  0  0  0  0  0
    4.3580   -0.3746   -0.9143 C   0  0  0  0  0  0  0  0  0  0  0  0
    5.0378   -0.0264    0.3819 C   0  0  0  0  0  0  0  0  0  0  0  0
    4.6164   -0.5044    1.4244 O   0  0  0  0  0  0  0  0  0  0  0  0
    6.2139    0.9109    0.4314 C   0  0  0  0  0  0  0  0  0  0  0  0
    7.2910    0.2659    1.0103 F   0  0  0  0  0  0  0  0  0  0  0  0
    6.5738    1.3300   -0.8374 F   0  0  0  0  0  0  0  0  0  0  0  0
    5.8864    2.0176    1.1926 F   0  0  0  0  0  0  0  0  0  0  0  0
   -5.0737    1.6303    1.6810 H   0  0  0  0  0  0  0  0  0  0  0  0
   -5.9374    1.2408    0.1363 H   0  0  0  0  0  0  0  0  0  0  0  0
   -6.5302    0.5655    1.7011 H   0  0  0  0  0  0  0  0  0  0  0  0
   -5.3218   -1.1720    0.4058 H   0  0  0  0  0  0  0  0  0  0  0  0
   -4.4590   -0.7833    1.9421 H   0  0  0  0  0  0  0  0  0  0  0  0
   -3.7635    0.3382   -0.8559 H   0  0  0  0  0  0  0  0  0  0  0  0
   -2.9123    0.7402    0.6856 H   0  0  0  0  0  0  0  0  0  0  0  0
   -3.1879   -2.1040   -0.4885 H   0  0  0  0  0  0  0  0  0  0  0  0
   -2.2418   -1.6525    0.9684 H   0  0  0  0  0  0  0  0  0  0  0  0
   -0.9039   -2.0121   -1.1684 H   0  0  0  0  0  0  0  0  0  0  0  0
   -1.7073   -0.5792   -1.8917 H   0  0  0  0  0  0  0  0  0  0  0  0
   -0.0335   -0.5566    0.7167 H   0  0  0  0  0  0  0  0  0  0  0  0
   -0.7454    0.8848   -0.1068 H   0  0  0  0  0  0  0  0  0  0  0  0
    0.6463    0.4177   -2.1370 H   0  0  0  0  0  0  0  0  0  0  0  0
    1.3665   -1.0139   -1.3101 H   0  0  0  0  0  0  0  0  0  0  0  0
    2.2541    0.5192    0.5066 H   0  0  0  0  0  0  0  0  0  0  0  0
    1.5401    1.9190   -0.3606 H   0  0  0  0  0  0  0  0  0  0  0  0
    5.1243   -0.6775   -1.6580 H   0  0  0  0  0  0  0  0  0  0  0  0
    3.6750   -1.2394   -0.7767 H   0  0  0  0  0  0  0  0  0  0  0  0
  1  2  1  0
  2  3  1  0
  3  4  1  0
  4  5  1  0
  5  6  1  0
  6  7  1  0
  7  8  1  0
  8  9  1  0
  9 10  1  0
 10 11  1  0
 11 12  2  0
 11 13  1  0
 13 14  1  0
 13 15  1  0
 13 16  1  0
  1 17  1  0
  1 18  1  0
  1 19  1  0
  2 20  1  0
  2 21  1  0
  3 22  1  0
  3 23  1  0
  4 24  1  0
  4 25  1  0
  5 26  1  0
  5 27  1  0
  6 28  1  0
  6 29  1  0
  7 30  1  0
  7 31  1  0
  8 32  1  0
  8 33  1  0
 10 34  1  0
 10 35  1  0
M  END
$$$$
