
     RDKit          3D

 73 75  0  0  0  0  0  0  0  0999 V2000
    0.0990   -0.7066   -0.9452 C   0  0  1  0  0  0  0  0  0  0  0  0
   -0.1355   -1.7072    0.2104 C   0  0  0  0  0  0  0  0  0  0  0  0
   -0.2686   -3.1732   -0.2347 C   0  0  0  0  0  0  0  0  0  0  0  0
    1.0240   -3.7149   -0.7622 C   0  0  0  0  0  0  0  0  0  0  0  0
    1.2888   -3.6755   -2.1275 O   0  0  0  0  0  0  0  0  0  0  0  0
    1.8837   -4.1795    0.0333 O   0  0  0  0  0  0  0  0  0  0  0  0
   -1.1201   -0.5653   -1.8924 C   0  0  0  0  0  0  0  0  0  0  0  0
   -2.3699   -0.0835   -1.1941 C   0  0  0  0  0  0  0  0  0  0  0  0
   -2.5641    1.2858   -0.9530 C   0  0  0  0  0  0  0  0  0  0  0  0
   -3.7111    1.7307   -0.2903 C   0  0  0  0  0  0  0  0  0  0  0  0
   -4.6823    0.8201    0.1406 C   0  0  0  0  0  0  0  0  0  0  0  0
   -5.8139    1.3175    0.8031 O   0  0  0  0  0  0  0  0  0  0  0  0
   -6.8785    0.5099    1.2975 C   0  0  0  0  0  0  0  0  0  0  0  0
   -7.9053    1.3916    1.9453 C   0  0  0  0  0  0  0  0  0  0  0  0
   -7.7941    1.7274    3.3047 C   0  0  0  0  0  0  0  0  0  0  0  0
   -8.7307    2.5798    3.8981 C   0  0  0  0  0  0  0  0  0  0  0  0
   -9.7752    3.1115    3.1367 C   0  0  0  0  0  0  0  0  0  0  0  0
   -9.8821    2.7956    1.7794 C   0  0  0  0  0  0  0  0  0  0  0  0
   -8.9476    1.9436    1.1823 C   0  0  0  0  0  0  0  0  0  0  0  0
   -4.4923   -0.5531   -0.1041 C   0  0  0  0  0  0  0  0  0  0  0  0
   -3.3453   -0.9987   -0.7674 C   0  0  0  0  0  0  0  0  0  0  0  0
    0.4435    0.5941   -0.3628 N   0  0  0  0  0  0  0  0  0  0  0  0
    1.1370    1.5577   -0.9045 C   0  0  0  0  0  0  0  0  0  0  0  0
    1.3413    2.7250   -0.1741 O   0  0  0  0  0  0  0  0  0  0  0  0
    1.7450    1.4775   -2.2839 C   0  0  0  0  0  0  0  0  0  0  0  0
    3.2821    1.4210   -2.2427 C   0  0  0  0  0  0  0  0  0  0  0  0
    3.8480    0.0135   -1.9759 C   0  0  0  0  0  0  0  0  0  0  0  0
    3.9326   -0.3213   -0.4778 C   0  0  0  0  0  0  0  0  0  0  0  0
    4.4585   -1.7448   -0.2200 C   0  0  0  0  0  0  0  0  0  0  0  0
    5.9472   -1.9421   -0.5533 C   0  0  0  0  0  0  0  0  0  0  0  0
    6.8414   -1.0625    0.2826 C   0  0  0  0  0  0  0  0  0  0  0  0
    7.4023    0.1055   -0.2618 C   0  0  0  0  0  0  0  0  0  0  0  0
    8.2097    0.9321    0.5257 C   0  0  0  0  0  0  0  0  0  0  0  0
    8.4605    0.6011    1.8601 C   0  0  0  0  0  0  0  0  0  0  0  0
    7.9029   -0.5563    2.4100 C   0  0  0  0  0  0  0  0  0  0  0  0
    7.0943   -1.3854    1.6264 C   0  0  0  0  0  0  0  0  0  0  0  0
    0.9636   -1.0826   -1.5295 H   0  0  0  0  0  0  0  0  0  0  0  0
   -1.0427   -1.4191    0.7826 H   0  0  0  0  0  0  0  0  0  0  0  0
    0.7156   -1.6362    0.9242 H   0  0  0  0  0  0  0  0  0  0  0  0
   -0.5762   -3.7820    0.6430 H   0  0  0  0  0  0  0  0  0  0  0  0
   -1.0634   -3.2910   -0.9979 H   0  0  0  0  0  0  0  0  0  0  0  0
    2.1676   -4.0190   -2.4960 H   0  0  0  0  0  0  0  0  0  0  0  0
   -1.3153   -1.5299   -2.4058 H   0  0  0  0  0  0  0  0  0  0  0  0
   -0.8767    0.1492   -2.7061 H   0  0  0  0  0  0  0  0  0  0  0  0
   -1.8284    2.0100   -1.2797 H   0  0  0  0  0  0  0  0  0  0  0  0
   -3.8465    2.7896   -0.1100 H   0  0  0  0  0  0  0  0  0  0  0  0
   -7.3403   -0.0576    0.4601 H   0  0  0  0  0  0  0  0  0  0  0  0
   -6.4844   -0.2199    2.0382 H   0  0  0  0  0  0  0  0  0  0  0  0
   -6.9836    1.3302    3.9035 H   0  0  0  0  0  0  0  0  0  0  0  0
   -8.6443    2.8313    4.9473 H   0  0  0  0  0  0  0  0  0  0  0  0
  -10.4984    3.7722    3.5971 H   0  0  0  0  0  0  0  0  0  0  0  0
  -10.6869    3.2141    1.1890 H   0  0  0  0  0  0  0  0  0  0  0  0
   -9.0360    1.7148    0.1273 H   0  0  0  0  0  0  0  0  0  0  0  0
   -5.2231   -1.2838    0.2141 H   0  0  0  0  0  0  0  0  0  0  0  0
   -3.2176   -2.0588   -0.9447 H   0  0  0  0  0  0  0  0  0  0  0  0
    0.9596    2.8333    0.7582 H   0  0  0  0  0  0  0  0  0  0  0  0
    1.3505    0.6437   -2.8953 H   0  0  0  0  0  0  0  0  0  0  0  0
    1.4510    2.4054   -2.8199 H   0  0  0  0  0  0  0  0  0  0  0  0
    3.6871    2.1548   -1.5114 H   0  0  0  0  0  0  0  0  0  0  0  0
    3.6481    1.7413   -3.2430 H   0  0  0  0  0  0  0  0  0  0  0  0
    4.8720   -0.0173   -2.4034 H   0  0  0  0  0  0  0  0  0  0  0  0
    3.2455   -0.7533   -2.5096 H   0  0  0  0  0  0  0  0  0  0  0  0
    4.5665    0.4256    0.0455 H   0  0  0  0  0  0  0  0  0  0  0  0
    2.9232   -0.2598   -0.0289 H   0  0  0  0  0  0  0  0  0  0  0  0
    3.8614   -2.4675   -0.8161 H   0  0  0  0  0  0  0  0  0  0  0  0
    4.2939   -1.9954    0.8508 H   0  0  0  0  0  0  0  0  0  0  0  0
    6.1272   -1.7738   -1.6360 H   0  0  0  0  0  0  0  0  0  0  0  0
    6.2116   -3.0047   -0.3610 H   0  0  0  0  0  0  0  0  0  0  0  0
    7.2109    0.3786   -1.2920 H   0  0  0  0  0  0  0  0  0  0  0  0
    8.6391    1.8307    0.1019 H   0  0  0  0  0  0  0  0  0  0  0  0
    9.0851    1.2425    2.4683 H   0  0  0  0  0  0  0  0  0  0  0  0
    8.0954   -0.8101    3.4444 H   0  0  0  0  0  0  0  0  0  0  0  0
    6.6636   -2.2767    2.0657 H   0  0  0  0  0  0  0  0  0  0  0  0
  1  2  1  0
  2  3  1  0
  3  4  1  0
  4  5  1  0
  4  6  2  0
  1  7  1  0
  7  8  1  0
  8  9  2  0
  9 10  1  0
 10 11  2  0
 11 12  1  0
 12 13  1  0
 13 14  1  0
 14 15  2  0
 15 16  1  0
 16 17  2  0
 17 18  1  0
 18 19  2  0
 11 20  1  0
 20 21  2  0
  1 22  1  0
 22 23  2  3
 23 24  1  0
 23 25  1  0
 25 26  1  0
 26 27  1  0
 27 28  1  0
 28 29  1  0
 29 30  1  0
 30 31  1  0
 31 32  2  0
 32 33  1  0
 33 34  2  0
 34 35  1  0
 35 36  2  0
 21  8  1  0
 36 31  1  0
 19 14  1  0
  1 37  1  6
  2 38  1  0
  2 39  1  0
  3 40  1  0
  3 41  1  0
  5 42  1  0
  7 43  1  0
  7 44  1  0
  9 45  1  0
 10 46  1  0
 13 47  1  0
 13 48  1  0
 15 49  1  0
 16 50  1  0
 17 51  1  0
 18 52  1  0
 19 53  1  0
 20 54  1  0
 21 55  1  0
 24 56  1  0
 25 57  1  0
 25 58  1  0
 26 59  1  0
 26 60  1  0
 27 61  1  0
 27 62  1  0
 28 63  1  0
 28 64  1  0
 29 65  1  0
 29 66  1  0
 30 67  1  0
 30 68  1  0
 32 69  1  0
 33 70  1  0
 34 71  1  0
 35 72  1  0
 36 73  1  0
M  END
$$$$
