
     RDKit          3D

 35 36  0  0  0  0  0  0  0  0999 V2000
   -5.1169    2.0156   -1.2240 C   0  0  0  0  0  0  0  0  0  0  0  0
   -4.4527    0.8596   -0.5360 C   0  0  0  0  0  0  0  0  0  0  0  0
   -5.2152   -0.0519    0.2041 C   0  0  0  0  0  0  0  0  0  0  0  0
   -4.6064   -1.1508    0.8151 C   0  0  0  0  0  0  0  0  0  0  0  0
   -5.8007   -2.4780    1.9495 I   0  0  0  0  0  0  0  0  0  0  0  0
   -3.2247   -1.3591    0.6864 C   0  0  0  0  0  0  0  0  0  0  0  0
   -2.6478   -2.4408    1.3572 O   0  0  0  0  0  0  0  0  0  0  0  0
   -2.4517   -0.4646   -0.0920 C   0  0  0  0  0  0  0  0  0  0  0  0
   -3.0780    0.6392   -0.6958 C   0  0  0  0  0  0  0  0  0  0  0  0
   -1.0085   -0.6841   -0.3237 C   0  0  0  0  0  0  0  0  0  0  0  0
   -0.6104   -1.8192   -0.7021 O   0  0  0  0  0  0  0  0  0  0  0  0
   -0.0768    0.4027   -0.1838 N   0  0  0  0  0  0  0  0  0  0  0  0
    1.3514    0.2506   -0.2491 C   0  0  0  0  0  0  0  0  0  0  0  0
    2.1263    1.2779   -0.8043 C   0  0  0  0  0  0  0  0  0  0  0  0
    3.5212    1.1723   -0.8634 C   0  0  0  0  0  0  0  0  0  0  0  0
    4.4166    2.4576   -1.6689 Cl  0  0  0  0  0  0  0  0  0  0  0  0
    4.1630    0.0301   -0.3371 C   0  0  0  0  0  0  0  0  0  0  0  0
    3.3843   -0.9930    0.2259 C   0  0  0  0  0  0  0  0  0  0  0  0
    1.9933   -0.8805    0.2804 C   0  0  0  0  0  0  0  0  0  0  0  0
    5.6355   -0.1245   -0.3635 C   0  0  0  0  0  0  0  0  0  0  0  0
    6.2155   -1.3268   -0.8724 N   0  0  0  0  0  0  0  0  0  0  0  0
    6.4090    0.7957    0.1214 N   0  0  0  0  0  0  0  0  0  0  0  0
   -6.0093    2.3516   -0.6541 H   0  0  0  0  0  0  0  0  0  0  0  0
   -5.4325    1.7072   -2.2425 H   0  0  0  0  0  0  0  0  0  0  0  0
   -4.4189    2.8760   -1.3056 H   0  0  0  0  0  0  0  0  0  0  0  0
   -6.2833    0.0931    0.3102 H   0  0  0  0  0  0  0  0  0  0  0  0
   -1.6497   -2.5988    1.4007 H   0  0  0  0  0  0  0  0  0  0  0  0
   -2.5013    1.3168   -1.3146 H   0  0  0  0  0  0  0  0  0  0  0  0
   -0.4551    1.3716   -0.0842 H   0  0  0  0  0  0  0  0  0  0  0  0
    1.6393    2.1552   -1.2122 H   0  0  0  0  0  0  0  0  0  0  0  0
    3.8571   -1.8720    0.6471 H   0  0  0  0  0  0  0  0  0  0  0  0
    1.4255   -1.6652    0.7622 H   0  0  0  0  0  0  0  0  0  0  0  0
    7.2513   -1.4601   -0.8635 H   0  0  0  0  0  0  0  0  0  0  0  0
    5.6160   -2.0785   -1.2798 H   0  0  0  0  0  0  0  0  0  0  0  0
    6.0345    1.6751    0.5428 H   0  0  0  0  0  0  0  0  0  0  0  0
  1  2  1  0
  2  3  2  0
  3  4  1  0
  4  5  1  0
  4  6  2  0
  6  7  1  0
  6  8  1  0
  8  9  2  0
  8 10  1  0
 10 11  2  0
 10 12  1  0
 12 13  1  0
 13 14  2  0
 14 15  1  0
 15 16  1  0
 15 17  2  0
 17 18  1  0
 18 19  2  0
 17 20  1  0
 20 21  1  0
 20 22  2  3
  9  2  1  0
 19 13  1  0
  1 23  1  0
  1 24  1  0
  1 25  1  0
  3 26  1  0
  7 27  1  0
  9 28  1  0
 12 29  1  0
 14 30  1  0
 18 31  1  0
 19 32  1  0
 21 33  1  0
 21 34  1  0
 22 35  1  0
M  END
$$$$
