
     RDKit          3D

 56 58  0  0  0  0  0  0  0  0999 V2000
    6.1168    3.4063   -0.7991 C   0  0  0  0  0  0  0  0  0  0  0  0
    6.1707    1.8644   -0.8100 C   0  0  0  0  0  0  0  0  0  0  0  0
    7.1709    1.3921   -1.8789 C   0  0  0  0  0  0  0  0  0  0  0  0
    6.6335    1.3754    0.5773 C   0  0  0  0  0  0  0  0  0  0  0  0
    4.8040    1.2930   -1.1335 C   0  0  0  0  0  0  0  0  0  0  0  0
    4.0552    1.8842   -1.9605 O   0  0  0  0  0  0  0  0  0  0  0  0
    4.4354    0.0419   -0.6176 O   0  0  0  0  0  0  0  0  0  0  0  0
    3.1331   -0.4782   -0.6050 C   0  0  0  0  0  0  0  0  0  0  0  0
    2.9732   -1.8840   -0.5938 C   0  0  0  0  0  0  0  0  0  0  0  0
    1.6926   -2.4649   -0.5682 C   0  0  0  0  0  0  0  0  0  0  0  0
    0.5917   -1.6075   -0.5456 C   0  0  0  0  0  0  0  0  0  0  0  0
   -0.7183   -1.9095   -0.5018 N   0  0  0  0  0  0  0  0  0  0  0  0
   -1.3163   -3.2489   -0.4458 C   0  0  0  0  0  0  0  0  0  0  0  0
   -1.2746   -3.8188    0.9783 C   0  0  0  0  0  0  0  0  0  0  0  0
   -2.1996   -3.0644    1.9387 C   0  0  0  0  0  0  0  0  0  0  0  0
   -2.1849   -3.6731    3.2011 O   0  0  0  0  0  0  0  0  0  0  0  0
   -1.3321   -0.6930   -0.4597 C   0  0  0  0  0  0  0  0  0  0  0  0
   -2.7555   -0.5193   -0.3498 N   0  0  0  0  0  0  0  0  0  0  0  0
   -3.3946    0.7682   -0.3749 C   0  0  0  0  0  0  0  0  0  0  0  0
   -2.7894    1.7605   -0.8654 O   0  0  0  0  0  0  0  0  0  0  0  0
   -4.7744    0.9411    0.1409 C   0  0  0  0  0  0  0  0  0  0  0  0
   -5.5684    2.0122   -0.3097 C   0  0  0  0  0  0  0  0  0  0  0  0
   -6.8780    2.1947    0.1744 C   0  0  0  0  0  0  0  0  0  0  0  0
   -7.3841    1.2931    1.1253 C   0  0  0  0  0  0  0  0  0  0  0  0
   -6.5979    0.2357    1.5858 C   0  0  0  0  0  0  0  0  0  0  0  0
   -5.3006    0.0598    1.1015 C   0  0  0  0  0  0  0  0  0  0  0  0
   -7.6898    3.2871   -0.2951 N   0  0  0  0  0  4  0  0  0  0  0  0
   -8.9698    3.4613    0.1794 O   0  0  0  0  0  1  0  0  0  0  0  0
   -7.2470    4.0937   -1.1391 O   0  0  0  0  0  0  0  0  0  0  0  0
   -0.4623    0.3523   -0.4777 N   0  0  0  0  0  0  0  0  0  0  0  0
    0.7372   -0.2520   -0.5376 C   0  0  0  0  0  0  0  0  0  0  0  0
    1.9894    0.3564   -0.5609 C   0  0  0  0  0  0  0  0  0  0  0  0
    5.3705    3.7642   -0.0569 H   0  0  0  0  0  0  0  0  0  0  0  0
    7.1083    3.8318   -0.5315 H   0  0  0  0  0  0  0  0  0  0  0  0
    5.8349    3.8014   -1.7991 H   0  0  0  0  0  0  0  0  0  0  0  0
    6.8611    1.7429   -2.8873 H   0  0  0  0  0  0  0  0  0  0  0  0
    7.2271    0.2819   -1.8985 H   0  0  0  0  0  0  0  0  0  0  0  0
    8.1872    1.7900   -1.6679 H   0  0  0  0  0  0  0  0  0  0  0  0
    7.6202    1.8151    0.8395 H   0  0  0  0  0  0  0  0  0  0  0  0
    6.7385    0.2689    0.5945 H   0  0  0  0  0  0  0  0  0  0  0  0
    5.9002    1.6709    1.3589 H   0  0  0  0  0  0  0  0  0  0  0  0
    3.8463   -2.5238   -0.6097 H   0  0  0  0  0  0  0  0  0  0  0  0
    1.5756   -3.5403   -0.5606 H   0  0  0  0  0  0  0  0  0  0  0  0
   -0.7497   -3.9287   -1.1177 H   0  0  0  0  0  0  0  0  0  0  0  0
   -2.3560   -3.2396   -0.8319 H   0  0  0  0  0  0  0  0  0  0  0  0
   -0.2323   -3.7864    1.3630 H   0  0  0  0  0  0  0  0  0  0  0  0
   -1.5904   -4.8841    0.9417 H   0  0  0  0  0  0  0  0  0  0  0  0
   -1.8891   -1.9989    2.0262 H   0  0  0  0  0  0  0  0  0  0  0  0
   -3.2396   -3.0923    1.5501 H   0  0  0  0  0  0  0  0  0  0  0  0
   -1.3297   -3.4115    3.6326 H   0  0  0  0  0  0  0  0  0  0  0  0
   -3.3600   -1.3616   -0.2498 H   0  0  0  0  0  0  0  0  0  0  0  0
   -5.1702    2.6987   -1.0465 H   0  0  0  0  0  0  0  0  0  0  0  0
   -8.3864    1.4075    1.5173 H   0  0  0  0  0  0  0  0  0  0  0  0
   -6.9936   -0.4472    2.3265 H   0  0  0  0  0  0  0  0  0  0  0  0
   -4.7066   -0.7527    1.4987 H   0  0  0  0  0  0  0  0  0  0  0  0
    2.0677    1.4339   -0.5133 H   0  0  0  0  0  0  0  0  0  0  0  0
  1  2  1  0
  2  3  1  0
  2  4  1  0
  2  5  1  0
  5  6  2  0
  5  7  1  0
  7  8  1  0
  8  9  2  0
  9 10  1  0
 10 11  2  0
 11 12  1  0
 12 13  1  0
 13 14  1  0
 14 15  1  0
 15 16  1  0
 12 17  1  0
 17 18  1  0
 18 19  1  0
 19 20  2  0
 19 21  1  0
 21 22  2  0
 22 23  1  0
 23 24  2  0
 24 25  1  0
 25 26  2  0
 23 27  1  0
 27 28  1  0
 27 29  2  0
 17 30  2  0
 30 31  1  0
 31 32  2  0
 32  8  1  0
 31 11  1  0
 26 21  1  0
  1 33  1  0
  1 34  1  0
  1 35  1  0
  3 36  1  0
  3 37  1  0
  3 38  1  0
  4 39  1  0
  4 40  1  0
  4 41  1  0
  9 42  1  0
 10 43  1  0
 13 44  1  0
 13 45  1  0
 14 46  1  0
 14 47  1  0
 15 48  1  0
 15 49  1  0
 16 50  1  0
 18 51  1  0
 22 52  1  0
 24 53  1  0
 25 54  1  0
 26 55  1  0
 32 56  1  0
M  CHG  2  27   1  28  -1
M  END
$$$$
