
     RDKit          3D

 45 47  0  0  0  0  0  0  0  0999 V2000
   -0.1277   -3.1940   -0.5923 C   0  0  1  0  0  0  0  0  0  0  0  0
   -0.1439   -4.4031    0.1309 O   0  0  0  0  0  0  0  0  0  0  0  0
   -1.5194   -2.6587   -0.7930 C   0  0  0  0  0  0  0  0  0  0  0  0
   -1.6896   -1.7052    0.3796 C   0  0  1  0  0  0  0  0  0  0  0  0
   -0.4174   -1.2692    0.8157 O   0  0  0  0  0  0  0  0  0  0  0  0
    0.5655   -2.0754    0.1962 C   0  0  2  0  0  0  0  0  0  0  0  0
    1.4447   -1.2009   -0.7212 C   0  0  0  0  0  0  0  0  0  0  0  0
    1.8828    0.0296   -0.0247 N   0  0  0  0  0  0  0  0  0  0  0  0
    2.2071    1.0874   -1.0056 C   0  0  0  0  0  0  0  0  0  0  0  0
    2.5532    2.3956   -0.2869 C   0  0  0  0  0  0  0  0  0  0  0  0
    3.7214    2.1851    0.6787 C   0  0  0  0  0  0  0  0  0  0  0  0
    3.4301    1.0219    1.6296 C   0  0  0  0  0  0  0  0  0  0  0  0
    3.0534   -0.2364    0.8401 C   0  0  0  0  0  0  0  0  0  0  0  0
   -2.5440   -0.5578    0.0069 N   0  0  0  0  0  0  0  0  0  0  0  0
   -1.9844    0.5525   -0.5653 C   0  0  0  0  0  0  0  0  0  0  0  0
   -2.7732    1.6434   -0.9413 C   0  0  0  0  0  0  0  0  0  0  0  0
   -2.1488    2.8536   -1.5792 C   0  0  0  0  0  0  0  0  0  0  0  0
   -4.1571    1.5487   -0.7581 C   0  0  0  0  0  0  0  0  0  0  0  0
   -4.9144    2.4969   -1.1018 O   0  0  0  0  0  0  0  0  0  0  0  0
   -4.6910    0.4256   -0.2114 N   0  0  0  0  0  0  0  0  0  0  0  0
   -3.9062   -0.6214    0.1633 C   0  0  0  0  0  0  0  0  0  0  0  0
   -4.4490   -1.6517    0.6499 O   0  0  0  0  0  0  0  0  0  0  0  0
    0.3601   -3.3847   -1.5740 H   0  0  0  0  0  0  0  0  0  0  0  0
   -0.5706   -4.2344    1.0121 H   0  0  0  0  0  0  0  0  0  0  0  0
   -1.5690   -2.1063   -1.7581 H   0  0  0  0  0  0  0  0  0  0  0  0
   -2.2886   -3.4619   -0.7883 H   0  0  0  0  0  0  0  0  0  0  0  0
   -2.1454   -2.2609    1.2300 H   0  0  0  0  0  0  0  0  0  0  0  0
    1.2074   -2.5246    0.9838 H   0  0  0  0  0  0  0  0  0  0  0  0
    0.8368   -0.9402   -1.6176 H   0  0  0  0  0  0  0  0  0  0  0  0
    2.3176   -1.7897   -1.0847 H   0  0  0  0  0  0  0  0  0  0  0  0
    1.3285    1.2883   -1.6574 H   0  0  0  0  0  0  0  0  0  0  0  0
    3.0556    0.7762   -1.6575 H   0  0  0  0  0  0  0  0  0  0  0  0
    1.6632    2.7546    0.2757 H   0  0  0  0  0  0  0  0  0  0  0  0
    2.8264    3.1702   -1.0354 H   0  0  0  0  0  0  0  0  0  0  0  0
    4.6481    1.9715    0.1015 H   0  0  0  0  0  0  0  0  0  0  0  0
    3.8882    3.1128    1.2672 H   0  0  0  0  0  0  0  0  0  0  0  0
    4.3293    0.8170    2.2496 H   0  0  0  0  0  0  0  0  0  0  0  0
    2.5939    1.2962    2.3097 H   0  0  0  0  0  0  0  0  0  0  0  0
    2.8178   -1.0331    1.5762 H   0  0  0  0  0  0  0  0  0  0  0  0
    3.9266   -0.5741    0.2358 H   0  0  0  0  0  0  0  0  0  0  0  0
   -0.9173    0.6002   -0.7341 H   0  0  0  0  0  0  0  0  0  0  0  0
   -2.5724    3.7805   -1.1382 H   0  0  0  0  0  0  0  0  0  0  0  0
   -2.3519    2.8429   -2.6705 H   0  0  0  0  0  0  0  0  0  0  0  0
   -1.0492    2.8716   -1.4202 H   0  0  0  0  0  0  0  0  0  0  0  0
   -5.7271    0.3616   -0.0827 H   0  0  0  0  0  0  0  0  0  0  0  0
  1  2  1  0
  1  3  1  0
  3  4  1  0
  4  5  1  0
  5  6  1  0
  6  7  1  0
  7  8  1  0
  8  9  1  0
  9 10  1  0
 10 11  1  0
 11 12  1  0
 12 13  1  0
  4 14  1  0
 14 15  1  0
 15 16  2  0
 16 17  1  0
 16 18  1  0
 18 19  2  0
 18 20  1  0
 20 21  1  0
 21 22  2  0
  6  1  1  0
 13  8  1  0
 21 14  1  0
  1 23  1  6
  2 24  1  0
  3 25  1  0
  3 26  1  0
  4 27  1  1
  6 28  1  1
  7 29  1  0
  7 30  1  0
  9 31  1  0
  9 32  1  0
 10 33  1  0
 10 34  1  0
 11 35  1  0
 11 36  1  0
 12 37  1  0
 12 38  1  0
 13 39  1  0
 13 40  1  0
 15 41  1  0
 17 42  1  0
 17 43  1  0
 17 44  1  0
 20 45  1  0
M  END
$$$$
