
     RDKit          3D

 71 74  0  0  0  0  0  0  0  0999 V2000
   -0.2325   -0.1626    0.9207 C   0  0  2  0  0  0  0  0  0  0  0  0
    0.8533    0.0074    1.9749 C   0  0  0  0  0  0  0  0  0  0  0  0
    2.1537   -0.4069    1.2617 C   0  0  0  0  0  0  0  0  0  0  0  0
    1.7890   -0.6809   -0.2333 C   0  0  2  0  0  0  0  0  0  0  0  0
    1.4876   -2.0789   -0.3937 O   0  0  0  0  0  0  0  0  0  0  0  0
    2.4080   -3.1305   -0.2869 C   0  0  0  0  0  0  0  0  0  0  0  0
    3.6244   -2.9042   -0.0389 O   0  0  0  0  0  0  0  0  0  0  0  0
    1.9550   -4.4398   -0.4611 O   0  0  0  0  0  0  0  0  0  0  0  0
    2.8171   -5.5693   -0.3699 C   0  0  0  0  0  0  0  0  0  0  0  0
    2.0181   -6.8407   -0.6074 C   0  0  0  0  0  0  0  0  0  0  0  0
    2.8684   -0.2991   -1.2533 C   0  0  0  0  0  0  0  0  0  0  0  0
    2.6113   -0.4082   -2.4431 O   0  0  0  0  0  0  0  0  0  0  0  0
    4.2469    0.1801   -0.8673 C   0  0  0  0  0  0  0  0  0  0  0  0
    4.2232    1.5666   -0.5378 O   0  0  0  0  0  0  0  0  0  0  0  0
    4.0803    2.5811   -1.4907 C   0  0  0  0  0  0  0  0  0  0  0  0
    4.0540    2.3112   -2.7225 O   0  0  0  0  0  0  0  0  0  0  0  0
    3.9981    4.0039   -1.0400 C   0  0  0  0  0  0  0  0  0  0  0  0
    5.3928    4.5939   -0.8716 C   0  0  0  0  0  0  0  0  0  0  0  0
    0.4686    0.1406   -0.4107 C   0  0  2  0  0  0  0  0  0  0  0  0
    0.8098    1.6594   -0.5931 C   0  0  0  0  0  0  0  0  0  0  0  0
   -0.4665   -0.3387   -1.5550 C   0  0  0  0  0  0  0  0  0  0  0  0
   -1.8844    0.2957   -1.4806 C   0  0  2  0  0  0  0  0  0  0  0  0
   -1.8385    1.6346   -1.8951 O   0  0  0  0  0  0  0  0  0  0  0  0
   -2.5408    0.1600   -0.0596 C   0  0  1  0  0  0  0  0  0  0  0  0
   -1.5720    0.5879    1.1015 C   0  0  1  0  0  0  0  0  0  0  0  0
   -2.1874    0.2461    2.4766 C   0  0  0  0  0  0  0  0  0  0  0  0
   -3.5549    0.8993    2.6589 C   0  0  0  0  0  0  0  0  0  0  0  0
   -4.4615    0.4995    1.5234 C   0  0  0  0  0  0  0  0  0  0  0  0
   -5.6432   -0.0780    1.7942 C   0  0  0  0  0  0  0  0  0  0  0  0
   -6.5181   -0.5383    0.7173 C   0  0  0  0  0  0  0  0  0  0  0  0
   -7.6327   -1.0593    0.9846 O   0  0  0  0  0  0  0  0  0  0  0  0
   -6.0830   -0.4052   -0.6700 C   0  0  0  0  0  0  0  0  0  0  0  0
   -4.9167    0.1712   -0.9626 C   0  0  0  0  0  0  0  0  0  0  0  0
   -3.9866    0.7815    0.0881 C   0  0  2  0  0  0  0  0  0  0  0  0
   -4.0225    2.3146   -0.1232 C   0  0  0  0  0  0  0  0  0  0  0  0
   -0.4912   -1.2501    0.9401 H   0  0  0  0  0  0  0  0  0  0  0  0
    0.9092    1.0673    2.3080 H   0  0  0  0  0  0  0  0  0  0  0  0
    0.6590   -0.6415    2.8568 H   0  0  0  0  0  0  0  0  0  0  0  0
    2.5889   -1.3036    1.7509 H   0  0  0  0  0  0  0  0  0  0  0  0
    2.8804    0.4232    1.3740 H   0  0  0  0  0  0  0  0  0  0  0  0
    3.6198   -5.4917   -1.1351 H   0  0  0  0  0  0  0  0  0  0  0  0
    3.2784   -5.6090    0.6407 H   0  0  0  0  0  0  0  0  0  0  0  0
    2.6881   -7.7234   -0.5368 H   0  0  0  0  0  0  0  0  0  0  0  0
    1.5582   -6.8165   -1.6180 H   0  0  0  0  0  0  0  0  0  0  0  0
    1.2170   -6.9334    0.1562 H   0  0  0  0  0  0  0  0  0  0  0  0
    4.9675   -0.0001   -1.6952 H   0  0  0  0  0  0  0  0  0  0  0  0
    4.6179   -0.3937    0.0061 H   0  0  0  0  0  0  0  0  0  0  0  0
    3.4286    4.6029   -1.7833 H   0  0  0  0  0  0  0  0  0  0  0  0
    3.4574    4.0511   -0.0705 H   0  0  0  0  0  0  0  0  0  0  0  0
    5.9654    4.0198   -0.1118 H   0  0  0  0  0  0  0  0  0  0  0  0
    5.3117    5.6484   -0.5335 H   0  0  0  0  0  0  0  0  0  0  0  0
    5.9403    4.5713   -1.8382 H   0  0  0  0  0  0  0  0  0  0  0  0
    1.5684    2.0051    0.1373 H   0  0  0  0  0  0  0  0  0  0  0  0
   -0.0573    2.3298   -0.4719 H   0  0  0  0  0  0  0  0  0  0  0  0
    1.2130    1.8432   -1.6108 H   0  0  0  0  0  0  0  0  0  0  0  0
   -0.0102   -0.1133   -2.5426 H   0  0  0  0  0  0  0  0  0  0  0  0
   -0.5930   -1.4421   -1.5105 H   0  0  0  0  0  0  0  0  0  0  0  0
   -2.5107   -0.2784   -2.2004 H   0  0  0  0  0  0  0  0  0  0  0  0
   -1.7146    1.6314   -2.8802 H   0  0  0  0  0  0  0  0  0  0  0  0
   -2.6907   -0.9387    0.0683 H   0  0  0  0  0  0  0  0  0  0  0  0
   -1.3974    1.6802    1.0853 H   0  0  0  0  0  0  0  0  0  0  0  0
   -1.5200    0.6071    3.2886 H   0  0  0  0  0  0  0  0  0  0  0  0
   -2.2933   -0.8564    2.5866 H   0  0  0  0  0  0  0  0  0  0  0  0
   -3.4460    2.0044    2.6795 H   0  0  0  0  0  0  0  0  0  0  0  0
   -3.9664    0.5911    3.6453 H   0  0  0  0  0  0  0  0  0  0  0  0
   -5.9567   -0.2403    2.8188 H   0  0  0  0  0  0  0  0  0  0  0  0
   -6.7165   -0.7722   -1.4683 H   0  0  0  0  0  0  0  0  0  0  0  0
   -4.6717    0.2870   -2.0103 H   0  0  0  0  0  0  0  0  0  0  0  0
   -4.9955    2.7244    0.2261 H   0  0  0  0  0  0  0  0  0  0  0  0
   -3.2187    2.8343    0.4342 H   0  0  0  0  0  0  0  0  0  0  0  0
   -3.9379    2.5882   -1.1950 H   0  0  0  0  0  0  0  0  0  0  0  0
  1  2  1  0
  2  3  1  0
  3  4  1  0
  4  5  1  1
  5  6  1  0
  6  7  2  0
  6  8  1  0
  8  9  1  0
  9 10  1  0
  4 11  1  0
 11 12  2  0
 11 13  1  0
 13 14  1  0
 14 15  1  0
 15 16  2  0
 15 17  1  0
 17 18  1  0
  4 19  1  0
 19 20  1  6
 19 21  1  0
 21 22  1  0
 22 23  1  0
 22 24  1  0
 24 25  1  0
 25 26  1  0
 26 27  1  0
 27 28  1  0
 28 29  2  0
 29 30  1  0
 30 31  2  0
 30 32  1  0
 32 33  2  0
 33 34  1  0
 34 35  1  6
 19  1  1  0
 34 24  1  0
 25  1  1  0
 34 28  1  0
  1 36  1  6
  2 37  1  0
  2 38  1  0
  3 39  1  0
  3 40  1  0
  9 41  1  0
  9 42  1  0
 10 43  1  0
 10 44  1  0
 10 45  1  0
 13 46  1  0
 13 47  1  0
 17 48  1  0
 17 49  1  0
 18 50  1  0
 18 51  1  0
 18 52  1  0
 20 53  1  0
 20 54  1  0
 20 55  1  0
 21 56  1  0
 21 57  1  0
 22 58  1  6
 23 59  1  0
 24 60  1  1
 25 61  1  1
 26 62  1  0
 26 63  1  0
 27 64  1  0
 27 65  1  0
 29 66  1  0
 32 67  1  0
 33 68  1  0
 35 69  1  0
 35 70  1  0
 35 71  1  0
M  END
$$$$
