
     RDKit          3D

 81 83  0  0  0  0  0  0  0  0999 V2000
    5.1986    2.4160   -3.2842 N   0  0  0  0  0  0  0  0  0  0  0  0
    3.8298    2.7614   -3.0595 C   0  0  0  0  0  0  0  0  0  0  0  0
    3.1773    3.3138   -3.9857 O   0  0  0  0  0  0  0  0  0  0  0  0
    3.1785    2.5161   -1.7512 C   0  0  0  0  0  0  0  0  0  0  0  0
    3.4464    1.3500   -1.0014 C   0  0  0  0  0  0  0  0  0  0  0  0
    4.3159    0.3816   -1.5278 O   0  0  0  0  0  0  0  0  0  0  0  0
    4.6535   -0.8473   -0.8889 C   0  0  0  0  0  0  0  0  0  0  0  0
    5.6386   -1.6348   -1.7650 C   0  0  0  0  0  0  0  0  0  0  0  0
    5.0021   -2.0255   -3.1131 C   0  0  0  0  0  0  0  0  0  0  0  0
    6.0215   -2.7100   -4.0474 C   0  0  0  0  0  0  0  0  0  0  0  0
    7.1367   -3.4634   -3.2957 C   0  0  0  0  0  0  0  0  0  0  0  0
    6.6407   -4.0133   -1.9553 C   0  0  0  0  0  0  0  0  0  0  0  0
    6.1577   -2.8889   -1.0153 C   0  0  0  0  0  0  0  0  0  0  0  0
    2.8159    1.1722    0.2447 C   0  0  0  0  0  0  0  0  0  0  0  0
    1.9150    2.1219    0.7260 C   0  0  0  0  0  0  0  0  0  0  0  0
    1.6122    3.2635   -0.0309 C   0  0  0  0  0  0  0  0  0  0  0  0
    2.2530    3.4554   -1.2640 C   0  0  0  0  0  0  0  0  0  0  0  0
    0.6298    4.2940    0.4855 C   0  0  2  0  0  0  0  0  0  0  0  0
    1.2773    5.1332    1.5912 C   0  0  0  0  0  0  0  0  0  0  0  0
   -0.5847    3.6370    0.9798 N   0  0  0  0  0  0  0  0  0  0  0  0
   -1.4927    2.9599    0.0980 C   0  0  0  0  0  0  0  0  0  0  0  0
   -1.3277    3.0270   -1.1513 O   0  0  0  0  0  0  0  0  0  0  0  0
   -2.5886    2.0973    0.6661 C   0  0  2  0  0  0  0  0  0  0  0  0
   -2.1058    0.6400    0.7535 C   0  0  0  0  0  0  0  0  0  0  0  0
   -3.1384   -0.2388    1.4112 C   0  0  0  0  0  0  0  0  0  0  0  0
   -3.2541   -0.2652    2.8080 C   0  0  0  0  0  0  0  0  0  0  0  0
   -4.2466   -1.0380    3.4266 C   0  0  0  0  0  0  0  0  0  0  0  0
   -5.1525   -1.7792    2.6443 C   0  0  0  0  0  0  0  0  0  0  0  0
   -6.1524   -2.5282    3.2905 O   0  0  0  0  0  0  0  0  0  0  0  0
   -7.0941   -3.3856    2.6462 C   0  0  0  0  0  0  0  0  0  0  0  0
   -6.4182   -4.6130    2.1231 C   0  0  0  0  0  0  0  0  0  0  0  0
   -6.5779   -4.9802    0.7908 O   0  0  0  0  0  0  0  0  0  0  0  0
   -5.7183   -5.3234    2.8932 O   0  0  0  0  0  0  0  0  0  0  0  0
   -5.0359   -1.7426    1.2411 C   0  0  0  0  0  0  0  0  0  0  0  0
   -4.0385   -0.9787    0.6328 C   0  0  0  0  0  0  0  0  0  0  0  0
   -4.3814   -1.0376    5.2201 P   0  0  0  0  0  5  0  0  0  0  0  0
   -4.4801   -2.6345    5.7728 O   0  0  0  0  0  0  0  0  0  0  0  0
   -3.0282   -0.2900    5.9104 O   0  0  0  0  0  0  0  0  0  0  0  0
   -5.6304   -0.2861    5.6226 O   0  0  0  0  0  0  0  0  0  0  0  0
   -3.7923    2.1871   -0.1698 N   0  0  0  0  0  0  0  0  0  0  0  0
   -5.1131    2.3067    0.3793 C   0  0  0  0  0  0  0  0  0  0  0  0
   -6.3034    2.1927   -0.5155 C   0  0  0  0  0  0  0  0  0  0  0  0
   -5.2818    2.4633    1.6189 O   0  0  0  0  0  0  0  0  0  0  0  0
    5.6206    2.5412   -4.2310 H   0  0  0  0  0  0  0  0  0  0  0  0
    5.8208    2.1264   -2.4978 H   0  0  0  0  0  0  0  0  0  0  0  0
    3.7323   -1.4479   -0.7211 H   0  0  0  0  0  0  0  0  0  0  0  0
    5.1311   -0.6291    0.0916 H   0  0  0  0  0  0  0  0  0  0  0  0
    6.5072   -0.9698   -1.9754 H   0  0  0  0  0  0  0  0  0  0  0  0
    4.5954   -1.1264   -3.6254 H   0  0  0  0  0  0  0  0  0  0  0  0
    4.1515   -2.7187   -2.9274 H   0  0  0  0  0  0  0  0  0  0  0  0
    6.4920   -1.9453   -4.7032 H   0  0  0  0  0  0  0  0  0  0  0  0
    5.4775   -3.4204   -4.7075 H   0  0  0  0  0  0  0  0  0  0  0  0
    7.9911   -2.7756   -3.1097 H   0  0  0  0  0  0  0  0  0  0  0  0
    7.5101   -4.2990   -3.9262 H   0  0  0  0  0  0  0  0  0  0  0  0
    5.8043   -4.7216   -2.1464 H   0  0  0  0  0  0  0  0  0  0  0  0
    7.4569   -4.5846   -1.4625 H   0  0  0  0  0  0  0  0  0  0  0  0
    5.3615   -3.3082   -0.3610 H   0  0  0  0  0  0  0  0  0  0  0  0
    6.9965   -2.5818   -0.3528 H   0  0  0  0  0  0  0  0  0  0  0  0
    3.0075    0.2955    0.8477 H   0  0  0  0  0  0  0  0  0  0  0  0
    1.4427    1.9602    1.6871 H   0  0  0  0  0  0  0  0  0  0  0  0
    2.0397    4.3472   -1.8418 H   0  0  0  0  0  0  0  0  0  0  0  0
    0.3403    4.9927   -0.3312 H   0  0  0  0  0  0  0  0  0  0  0  0
    1.5710    4.4939    2.4514 H   0  0  0  0  0  0  0  0  0  0  0  0
    2.1807    5.6483    1.2000 H   0  0  0  0  0  0  0  0  0  0  0  0
    0.5611    5.9037    1.9478 H   0  0  0  0  0  0  0  0  0  0  0  0
   -0.7666    3.6006    2.0090 H   0  0  0  0  0  0  0  0  0  0  0  0
   -2.8115    2.4620    1.6928 H   0  0  0  0  0  0  0  0  0  0  0  0
   -1.8692    0.2582   -0.2647 H   0  0  0  0  0  0  0  0  0  0  0  0
   -1.1627    0.5952    1.3429 H   0  0  0  0  0  0  0  0  0  0  0  0
   -2.5739    0.3253    3.4091 H   0  0  0  0  0  0  0  0  0  0  0  0
   -7.6217   -2.8421    1.8336 H   0  0  0  0  0  0  0  0  0  0  0  0
   -7.8564   -3.6956    3.3908 H   0  0  0  0  0  0  0  0  0  0  0  0
   -6.1292   -5.8108    0.4236 H   0  0  0  0  0  0  0  0  0  0  0  0
   -5.7168   -2.2918    0.6072 H   0  0  0  0  0  0  0  0  0  0  0  0
   -3.9780   -0.9517   -0.4483 H   0  0  0  0  0  0  0  0  0  0  0  0
   -4.5730   -2.5581    6.7558 H   0  0  0  0  0  0  0  0  0  0  0  0
   -3.1819   -0.3384    6.8876 H   0  0  0  0  0  0  0  0  0  0  0  0
   -3.7047    1.9935   -1.1937 H   0  0  0  0  0  0  0  0  0  0  0  0
   -6.1461    2.8009   -1.4307 H   0  0  0  0  0  0  0  0  0  0  0  0
   -7.2162    2.5563    0.0024 H   0  0  0  0  0  0  0  0  0  0  0  0
   -6.4471    1.1301   -0.8020 H   0  0  0  0  0  0  0  0  0  0  0  0
  1  2  1  0
  2  3  2  0
  2  4  1  0
  4  5  2  0
  5  6  1  0
  6  7  1  0
  7  8  1  0
  8  9  1  0
  9 10  1  0
 10 11  1  0
 11 12  1  0
 12 13  1  0
  5 14  1  0
 14 15  2  0
 15 16  1  0
 16 17  2  0
 16 18  1  0
 18 19  1  0
 18 20  1  0
 20 21  1  0
 21 22  2  0
 21 23  1  0
 23 24  1  0
 24 25  1  0
 25 26  2  0
 26 27  1  0
 27 28  2  0
 28 29  1  0
 29 30  1  0
 30 31  1  0
 31 32  1  0
 31 33  2  0
 28 34  1  0
 34 35  2  0
 27 36  1  0
 36 37  1  0
 36 38  1  0
 36 39  2  0
 23 40  1  0
 40 41  1  0
 41 42  1  0
 41 43  2  0
 17  4  1  0
 35 25  1  0
 13  8  1  0
  1 44  1  0
  1 45  1  0
  7 46  1  0
  7 47  1  0
  8 48  1  0
  9 49  1  0
  9 50  1  0
 10 51  1  0
 10 52  1  0
 11 53  1  0
 11 54  1  0
 12 55  1  0
 12 56  1  0
 13 57  1  0
 13 58  1  0
 14 59  1  0
 15 60  1  0
 17 61  1  0
 18 62  1  6
 19 63  1  0
 19 64  1  0
 19 65  1  0
 20 66  1  0
 23 67  1  1
 24 68  1  0
 24 69  1  0
 26 70  1  0
 30 71  1  0
 30 72  1  0
 32 73  1  0
 34 74  1  0
 35 75  1  0
 37 76  1  0
 38 77  1  0
 40 78  1  0
 42 79  1  0
 42 80  1  0
 42 81  1  0
M  END
$$$$
