
     RDKit          3D

 58 60  0  0  0  0  0  0  0  0999 V2000
    3.4659   -0.7449   -1.8803 O   0  0  0  0  0  0  0  0  0  0  0  0
    4.3703   -0.2770   -1.1371 C   0  0  0  0  0  0  0  0  0  0  0  0
    4.0431    0.7259   -0.1591 N   0  0  0  0  0  0  0  0  0  0  0  0
    2.7145    1.3292   -0.0740 C   0  0  0  0  0  0  0  0  0  0  0  0
    1.7414    0.3833    0.6367 C   0  0  0  0  0  0  0  0  0  0  0  0
    0.3505    1.0159    0.7626 C   0  0  0  0  0  0  0  0  0  0  0  0
   -0.6262    0.0625    1.4697 C   0  0  0  0  0  0  0  0  0  0  0  0
   -2.0212    0.6962    1.6822 C   0  0  0  0  0  0  0  0  0  0  0  0
   -2.7105    1.0238    0.3279 C   0  0  0  0  0  0  0  0  0  0  0  0
   -4.2331    0.8905    0.4003 C   0  0  0  0  0  0  0  0  0  0  0  0
   -4.5916   -0.4761    0.8095 N   0  0  0  0  0  0  0  0  0  0  0  0
   -3.7650   -1.1822    1.7991 C   0  0  0  0  0  0  0  0  0  0  0  0
   -2.8991   -0.1995    2.5964 C   0  0  0  0  0  0  0  0  0  0  0  0
   -5.6580   -1.1887    0.1524 C   0  0  0  0  0  0  0  0  0  0  0  0
   -5.5484   -2.4320   -0.0312 O   0  0  0  0  0  0  0  0  0  0  0  0
   -6.8850   -0.5006   -0.3101 C   0  0  0  0  0  0  0  0  0  0  0  0
   -7.4153    0.5856    0.4087 C   0  0  0  0  0  0  0  0  0  0  0  0
   -8.5809    1.2213   -0.0300 C   0  0  0  0  0  0  0  0  0  0  0  0
   -9.2324    0.7737   -1.1818 C   0  0  0  0  0  0  0  0  0  0  0  0
   -8.7232   -0.3153   -1.8934 C   0  0  0  0  0  0  0  0  0  0  0  0
   -7.5581   -0.9546   -1.4582 C   0  0  0  0  0  0  0  0  0  0  0  0
    5.7402   -0.8086   -1.2839 C   0  0  0  0  0  0  0  0  0  0  0  0
    6.8313   -0.1533   -0.8623 C   0  0  0  0  0  0  0  0  0  0  0  0
    8.2110   -0.6740   -1.0230 C   0  0  0  0  0  0  0  0  0  0  0  0
    9.2871    0.2259   -0.9787 C   0  0  0  0  0  0  0  0  0  0  0  0
   10.5972   -0.2352   -1.1160 C   0  0  0  0  0  0  0  0  0  0  0  0
   10.8271   -1.6002   -1.2859 C   0  0  0  0  0  0  0  0  0  0  0  0
    9.7817   -2.4676   -1.3088 N   0  0  0  0  0  0  0  0  0  0  0  0
    8.4954   -2.0449   -1.1807 C   0  0  0  0  0  0  0  0  0  0  0  0
    4.7558    1.0331    0.5388 H   0  0  0  0  0  0  0  0  0  0  0  0
    2.7856    2.2784    0.5011 H   0  0  0  0  0  0  0  0  0  0  0  0
    2.3461    1.5759   -1.0939 H   0  0  0  0  0  0  0  0  0  0  0  0
    1.6614   -0.5667    0.0655 H   0  0  0  0  0  0  0  0  0  0  0  0
    2.1373    0.1514    1.6499 H   0  0  0  0  0  0  0  0  0  0  0  0
   -0.0282    1.2569   -0.2540 H   0  0  0  0  0  0  0  0  0  0  0  0
    0.4279    1.9609    1.3440 H   0  0  0  0  0  0  0  0  0  0  0  0
   -0.1936   -0.2017    2.4600 H   0  0  0  0  0  0  0  0  0  0  0  0
   -0.7261   -0.8768    0.8820 H   0  0  0  0  0  0  0  0  0  0  0  0
   -1.8721    1.6547    2.2291 H   0  0  0  0  0  0  0  0  0  0  0  0
   -2.4478    2.0579    0.0153 H   0  0  0  0  0  0  0  0  0  0  0  0
   -2.3521    0.3329   -0.4675 H   0  0  0  0  0  0  0  0  0  0  0  0
   -4.6557    1.1247   -0.6013 H   0  0  0  0  0  0  0  0  0  0  0  0
   -4.6382    1.6209    1.1330 H   0  0  0  0  0  0  0  0  0  0  0  0
   -3.1155   -1.9206    1.2812 H   0  0  0  0  0  0  0  0  0  0  0  0
   -4.4223   -1.7292    2.5098 H   0  0  0  0  0  0  0  0  0  0  0  0
   -2.2811   -0.7609    3.3304 H   0  0  0  0  0  0  0  0  0  0  0  0
   -3.5781    0.4521    3.1902 H   0  0  0  0  0  0  0  0  0  0  0  0
   -6.9430    0.9286    1.3198 H   0  0  0  0  0  0  0  0  0  0  0  0
   -8.9833    2.0571    0.5278 H   0  0  0  0  0  0  0  0  0  0  0  0
  -10.1351    1.2664   -1.5192 H   0  0  0  0  0  0  0  0  0  0  0  0
   -9.2316   -0.6649   -2.7827 H   0  0  0  0  0  0  0  0  0  0  0  0
   -7.1757   -1.7951   -2.0243 H   0  0  0  0  0  0  0  0  0  0  0  0
    5.8436   -1.7417   -1.8211 H   0  0  0  0  0  0  0  0  0  0  0  0
    6.7275    0.8376   -0.4406 H   0  0  0  0  0  0  0  0  0  0  0  0
    9.1125    1.2868   -0.8465 H   0  0  0  0  0  0  0  0  0  0  0  0
   11.4269    0.4594   -1.0900 H   0  0  0  0  0  0  0  0  0  0  0  0
   11.8374   -1.9717   -1.3926 H   0  0  0  0  0  0  0  0  0  0  0  0
    7.7086   -2.7855   -1.1789 H   0  0  0  0  0  0  0  0  0  0  0  0
  1  2  2  0
  2  3  1  0
  3  4  1  0
  4  5  1  0
  5  6  1  0
  6  7  1  0
  7  8  1  0
  8  9  1  0
  9 10  1  0
 10 11  1  0
 11 12  1  0
 12 13  1  0
 11 14  1  0
 14 15  2  0
 14 16  1  0
 16 17  2  0
 17 18  1  0
 18 19  2  0
 19 20  1  0
 20 21  2  0
  2 22  1  0
 22 23  2  0
 23 24  1  0
 24 25  2  0
 25 26  1  0
 26 27  2  0
 27 28  1  0
 28 29  2  0
 13  8  1  0
 21 16  1  0
 29 24  1  0
  3 30  1  0
  4 31  1  0
  4 32  1  0
  5 33  1  0
  5 34  1  0
  6 35  1  0
  6 36  1  0
  7 37  1  0
  7 38  1  0
  8 39  1  0
  9 40  1  0
  9 41  1  0
 10 42  1  0
 10 43  1  0
 12 44  1  0
 12 45  1  0
 13 46  1  0
 13 47  1  0
 17 48  1  0
 18 49  1  0
 19 50  1  0
 20 51  1  0
 21 52  1  0
 22 53  1  0
 23 54  1  0
 25 55  1  0
 26 56  1  0
 27 57  1  0
 29 58  1  0
M  END
$$$$
