
     RDKit          3D

 49 52  0  0  0  0  0  0  0  0999 V2000
   -3.2899   -0.0145   -0.2739 C   0  0  2  0  0  0  0  0  0  0  0  0
   -3.8898   -1.3424   -0.4406 N   0  0  0  0  0  0  0  0  0  0  0  0
   -1.7551   -0.1038   -0.2221 C   0  0  0  0  0  0  0  0  0  0  0  0
   -1.2582   -0.6411   -1.4460 O   0  0  0  0  0  0  0  0  0  0  0  0
    0.0989   -0.8618   -1.7221 C   0  0  0  0  0  0  0  0  0  0  0  0
    0.4498   -1.4037   -2.9608 C   0  0  0  0  0  0  0  0  0  0  0  0
    1.7534   -1.6312   -3.2669 N   0  0  0  0  0  0  0  0  0  0  0  0
    2.7556   -1.3442   -2.3959 C   0  0  0  0  0  0  0  0  0  0  0  0
    2.4651   -0.7992   -1.1342 C   0  0  0  0  0  0  0  0  0  0  0  0
    1.1204   -0.5588   -0.8046 C   0  0  0  0  0  0  0  0  0  0  0  0
    3.5527   -0.4839   -0.1736 C   0  0  0  0  0  0  0  0  0  0  0  0
    4.7668    0.0851   -0.6312 C   0  0  0  0  0  0  0  0  0  0  0  0
    5.7525    0.3629    0.3121 C   0  0  0  0  0  0  0  0  0  0  0  0
    5.5825    0.1029    1.6395 C   0  0  0  0  0  0  0  0  0  0  0  0
    6.6869    0.4610    2.3147 N   0  0  0  0  0  0  0  0  0  0  0  0
    7.5704    0.9487    1.4500 N   0  0  0  0  0  0  0  0  0  0  0  0
    7.0175    0.9044    0.2135 C   0  0  0  0  0  0  0  0  0  0  0  0
    7.7081    1.3410   -1.0359 C   0  0  0  0  0  0  0  0  0  0  0  0
    4.4100   -0.4564    2.1356 C   0  0  0  0  0  0  0  0  0  0  0  0
    3.3864   -0.7507    1.2152 C   0  0  0  0  0  0  0  0  0  0  0  0
   -3.8336    0.6546    1.0018 C   0  0  0  0  0  0  0  0  0  0  0  0
   -5.3245    0.8616    0.9215 C   0  0  0  0  0  0  0  0  0  0  0  0
   -6.2048   -0.0800    1.4803 C   0  0  0  0  0  0  0  0  0  0  0  0
   -7.5876    0.1011    1.3787 C   0  0  0  0  0  0  0  0  0  0  0  0
   -8.1017    1.2185    0.7131 C   0  0  0  0  0  0  0  0  0  0  0  0
   -9.9907    1.4628    0.5737 Br  0  0  0  0  0  0  0  0  0  0  0  0
   -7.2311    2.1545    0.1457 C   0  0  0  0  0  0  0  0  0  0  0  0
   -5.8479    1.9762    0.2455 C   0  0  0  0  0  0  0  0  0  0  0  0
   -3.5689    0.6169   -1.1477 H   0  0  0  0  0  0  0  0  0  0  0  0
   -3.5225   -1.9870    0.2973 H   0  0  0  0  0  0  0  0  0  0  0  0
   -3.6069   -1.7304   -1.3696 H   0  0  0  0  0  0  0  0  0  0  0  0
   -1.4429   -0.7520    0.6262 H   0  0  0  0  0  0  0  0  0  0  0  0
   -1.3321    0.9141   -0.0748 H   0  0  0  0  0  0  0  0  0  0  0  0
   -0.3180   -1.6458   -3.6838 H   0  0  0  0  0  0  0  0  0  0  0  0
    3.7764   -1.5594   -2.6835 H   0  0  0  0  0  0  0  0  0  0  0  0
    0.8772   -0.1202    0.1535 H   0  0  0  0  0  0  0  0  0  0  0  0
    4.9287    0.3177   -1.6761 H   0  0  0  0  0  0  0  0  0  0  0  0
    6.8480    0.3765    3.3429 H   0  0  0  0  0  0  0  0  0  0  0  0
    8.6696    1.8377   -0.7882 H   0  0  0  0  0  0  0  0  0  0  0  0
    7.0648    2.0568   -1.5891 H   0  0  0  0  0  0  0  0  0  0  0  0
    7.9098    0.4576   -1.6767 H   0  0  0  0  0  0  0  0  0  0  0  0
    4.2895   -0.6627    3.1912 H   0  0  0  0  0  0  0  0  0  0  0  0
    2.4738   -1.2027    1.5823 H   0  0  0  0  0  0  0  0  0  0  0  0
   -3.5800    0.0353    1.8908 H   0  0  0  0  0  0  0  0  0  0  0  0
   -3.3402    1.6413    1.1453 H   0  0  0  0  0  0  0  0  0  0  0  0
   -5.8208   -0.9542    1.9915 H   0  0  0  0  0  0  0  0  0  0  0  0
   -8.2580   -0.6284    1.8146 H   0  0  0  0  0  0  0  0  0  0  0  0
   -7.6250    3.0181   -0.3747 H   0  0  0  0  0  0  0  0  0  0  0  0
   -5.1846    2.7045   -0.2047 H   0  0  0  0  0  0  0  0  0  0  0  0
  1  2  1  0
  1  3  1  0
  3  4  1  0
  4  5  1  0
  5  6  2  0
  6  7  1  0
  7  8  2  0
  8  9  1  0
  9 10  2  0
  9 11  1  0
 11 12  2  0
 12 13  1  0
 13 14  2  0
 14 15  1  0
 15 16  1  0
 16 17  2  0
 17 18  1  0
 14 19  1  0
 19 20  2  0
  1 21  1  0
 21 22  1  0
 22 23  2  0
 23 24  1  0
 24 25  2  0
 25 26  1  0
 25 27  1  0
 27 28  2  0
 10  5  1  0
 20 11  1  0
 28 22  1  0
 17 13  1  0
  1 29  1  6
  2 30  1  0
  2 31  1  0
  3 32  1  0
  3 33  1  0
  6 34  1  0
  8 35  1  0
 10 36  1  0
 12 37  1  0
 15 38  1  0
 18 39  1  0
 18 40  1  0
 18 41  1  0
 19 42  1  0
 20 43  1  0
 21 44  1  0
 21 45  1  0
 23 46  1  0
 24 47  1  0
 27 48  1  0
 28 49  1  0
M  END
$$$$
