
     RDKit          3D

 49 51  0  0  0  0  0  0  0  0999 V2000
   -0.2992   -3.0170    0.2651 C   0  0  0  0  0  0  0  0  0  0  0  0
    0.3697   -1.6849    0.2032 C   0  0  0  0  0  0  0  0  0  0  0  0
    1.7113   -1.5273    0.2111 N   0  0  0  0  0  0  0  0  0  0  0  0
    1.9727   -0.2300    0.1165 N   0  0  0  0  0  0  0  0  0  0  0  0
    0.8122    0.4528    0.0485 C   0  0  0  0  0  0  0  0  0  0  0  0
    0.7114    1.8368   -0.0712 O   0  0  0  0  0  0  0  0  0  0  0  0
   -0.2326   -0.4391    0.0943 C   0  0  0  0  0  0  0  0  0  0  0  0
   -1.6220   -0.1005    0.0429 N   0  0  0  0  0  0  0  0  0  0  0  0
   -2.5478   -0.9736    0.0550 N   0  0  0  0  0  0  0  0  0  0  0  0
   -3.9367   -0.6026    0.0188 C   0  0  0  0  0  0  0  0  0  0  0  0
   -4.3057    0.7582   -0.0001 C   0  0  0  0  0  0  0  0  0  0  0  0
   -5.6517    1.1376    0.0171 C   0  0  0  0  0  0  0  0  0  0  0  0
   -6.6451    0.1568    0.0441 C   0  0  0  0  0  0  0  0  0  0  0  0
   -6.2985   -1.1941    0.0601 C   0  0  0  0  0  0  0  0  0  0  0  0
   -4.9490   -1.5949    0.0408 C   0  0  0  0  0  0  0  0  0  0  0  0
   -4.6346   -3.0453    0.0352 C   0  0  0  0  0  0  0  0  0  0  0  0
   -3.3930   -3.5044   -0.3898 O   0  0  0  0  0  0  0  0  0  0  0  0
   -5.5060   -3.8835    0.3937 O   0  0  0  0  0  0  0  0  0  0  0  0
   -6.0885    2.8436   -0.0195 S   0  0  0  0  0  6  0  0  0  0  0  0
   -6.1638    3.3733   -1.6128 O   0  0  0  0  0  0  0  0  0  0  0  0
   -5.0691    3.6512    0.7344 O   0  0  0  0  0  0  0  0  0  0  0  0
   -7.4293    3.0385    0.6310 O   0  0  0  0  0  0  0  0  0  0  0  0
    3.2994    0.3264    0.1266 C   0  0  0  0  0  0  0  0  0  0  0  0
    4.3337   -0.2224   -0.6698 C   0  0  0  0  0  0  0  0  0  0  0  0
    4.0825   -1.3840   -1.5932 C   0  0  0  0  0  0  0  0  0  0  0  0
    5.6275    0.3216   -0.5924 C   0  0  0  0  0  0  0  0  0  0  0  0
    5.8939    1.4171    0.2374 C   0  0  0  0  0  0  0  0  0  0  0  0
    4.8671    1.9626    1.0137 C   0  0  0  0  0  0  0  0  0  0  0  0
    3.5817    1.4225    0.9587 C   0  0  0  0  0  0  0  0  0  0  0  0
    7.5215    2.0838    0.3276 S   0  0  0  0  0  6  0  0  0  0  0  0
    8.4070    1.2566    1.4923 O   0  0  0  0  0  0  0  0  0  0  0  0
    8.1992    1.9410   -1.0062 O   0  0  0  0  0  0  0  0  0  0  0  0
    7.4631    3.5438    0.6810 O   0  0  0  0  0  0  0  0  0  0  0  0
   -1.0621   -3.0215    1.0709 H   0  0  0  0  0  0  0  0  0  0  0  0
   -0.7743   -3.2356   -0.7130 H   0  0  0  0  0  0  0  0  0  0  0  0
    0.4481   -3.8088    0.4827 H   0  0  0  0  0  0  0  0  0  0  0  0
   -0.1920    2.2916   -0.1249 H   0  0  0  0  0  0  0  0  0  0  0  0
   -3.5456    1.5286   -0.0227 H   0  0  0  0  0  0  0  0  0  0  0  0
   -7.6912    0.4355    0.0471 H   0  0  0  0  0  0  0  0  0  0  0  0
   -7.0935   -1.9297    0.0723 H   0  0  0  0  0  0  0  0  0  0  0  0
   -3.1802   -4.4948   -0.4021 H   0  0  0  0  0  0  0  0  0  0  0  0
   -5.2523    3.2290   -1.9728 H   0  0  0  0  0  0  0  0  0  0  0  0
    3.1258   -1.2433   -2.1393 H   0  0  0  0  0  0  0  0  0  0  0  0
    4.8881   -1.4783   -2.3522 H   0  0  0  0  0  0  0  0  0  0  0  0
    4.0408   -2.3249   -1.0059 H   0  0  0  0  0  0  0  0  0  0  0  0
    6.4292   -0.1051   -1.1829 H   0  0  0  0  0  0  0  0  0  0  0  0
    5.0629    2.7995    1.6719 H   0  0  0  0  0  0  0  0  0  0  0  0
    2.8079    1.8449    1.5869 H   0  0  0  0  0  0  0  0  0  0  0  0
    7.9070    1.3923    2.3366 H   0  0  0  0  0  0  0  0  0  0  0  0
  1  2  1  0
  2  3  2  0
  3  4  1  0
  4  5  1  0
  5  6  1  0
  5  7  2  0
  7  8  1  0
  8  9  2  0
  9 10  1  0
 10 11  2  0
 11 12  1  0
 12 13  2  0
 13 14  1  0
 14 15  2  0
 15 16  1  0
 16 17  1  0
 16 18  2  0
 12 19  1  0
 19 20  1  0
 19 21  2  0
 19 22  2  0
  4 23  1  0
 23 24  2  0
 24 25  1  0
 24 26  1  0
 26 27  2  0
 27 28  1  0
 28 29  2  0
 27 30  1  0
 30 31  1  0
 30 32  2  0
 30 33  2  0
  7  2  1  0
 15 10  1  0
 29 23  1  0
  1 34  1  0
  1 35  1  0
  1 36  1  0
  6 37  1  0
 11 38  1  0
 13 39  1  0
 14 40  1  0
 17 41  1  0
 20 42  1  0
 25 43  1  0
 25 44  1  0
 25 45  1  0
 26 46  1  0
 28 47  1  0
 29 48  1  0
 31 49  1  0
M  END
$$$$
