
     RDKit          3D

 54 58  0  0  0  0  0  0  0  0999 V2000
   -3.5538   -0.0511   -3.6671 C   0  0  0  0  0  0  0  0  0  0  0  0
   -4.8385   -0.3390   -2.8862 C   0  0  0  0  0  0  0  0  0  0  0  0
   -4.9162    0.3911   -1.5165 C   0  0  1  0  0  0  0  0  0  0  0  0
   -4.7709    1.7855   -1.6814 O   0  0  0  0  0  0  0  0  0  0  0  0
   -6.2689    0.1063   -0.8914 C   0  0  0  0  0  0  0  0  0  0  0  0
   -7.2663    0.8227   -1.1735 O   0  0  0  0  0  0  0  0  0  0  0  0
   -6.4326   -0.9707   -0.0169 O   0  0  0  0  0  0  0  0  0  0  0  0
   -5.4002   -1.9260    0.2082 C   0  0  0  0  0  0  0  0  0  0  0  0
   -4.0541   -1.2494    0.2483 C   0  0  0  0  0  0  0  0  0  0  0  0
   -3.8218   -0.1177   -0.5799 C   0  0  0  0  0  0  0  0  0  0  0  0
   -2.5508    0.4947   -0.5650 C   0  0  0  0  0  0  0  0  0  0  0  0
   -1.5682   -0.0392    0.2609 C   0  0  0  0  0  0  0  0  0  0  0  0
   -1.8004   -1.1234    1.0310 N   0  0  0  0  0  0  0  0  0  0  0  0
   -0.5940   -1.4883    1.7862 C   0  0  0  0  0  0  0  0  0  0  0  0
    0.3886   -0.4464    1.3365 C   0  0  0  0  0  0  0  0  0  0  0  0
    1.7151   -0.2576    1.7059 C   0  0  0  0  0  0  0  0  0  0  0  0
    2.4413    0.8148    1.1222 C   0  0  0  0  0  0  0  0  0  0  0  0
    1.7487    1.6713    0.2040 C   0  0  0  0  0  0  0  0  0  0  0  0
    2.3994    2.7643   -0.3633 C   0  0  0  0  0  0  0  0  0  0  0  0
    3.7183    3.0460   -0.0299 C   0  0  0  0  0  0  0  0  0  0  0  0
    4.4226    2.2258    0.8577 C   0  0  0  0  0  0  0  0  0  0  0  0
    5.7372    2.5590    1.1868 O   0  0  0  0  0  0  0  0  0  0  0  0
    3.8128    1.0776    1.4202 C   0  0  0  0  0  0  0  0  0  0  0  0
    4.6518    0.1737    2.3286 C   0  0  0  0  0  0  0  0  0  0  0  0
    5.3794   -0.9072    1.6186 N   0  0  0  0  0  0  0  0  0  0  0  0
    4.4889   -1.8821    0.9727 C   0  0  0  0  0  0  0  0  0  0  0  0
    6.3790   -0.4010    0.6663 C   0  0  0  0  0  0  0  0  0  0  0  0
    0.4425    1.4400   -0.1208 N   0  0  0  0  0  0  0  0  0  0  0  0
   -0.2064    0.3943    0.4384 C   0  0  0  0  0  0  0  0  0  0  0  0
   -3.0054   -1.7535    1.0489 C   0  0  0  0  0  0  0  0  0  0  0  0
   -3.1747   -2.7742    1.7702 O   0  0  0  0  0  0  0  0  0  0  0  0
   -3.6242   -0.5139   -4.6739 H   0  0  0  0  0  0  0  0  0  0  0  0
   -2.6749   -0.4891   -3.1506 H   0  0  0  0  0  0  0  0  0  0  0  0
   -3.4050    1.0416   -3.7941 H   0  0  0  0  0  0  0  0  0  0  0  0
   -4.9218   -1.4378   -2.7378 H   0  0  0  0  0  0  0  0  0  0  0  0
   -5.7003   -0.0292   -3.5181 H   0  0  0  0  0  0  0  0  0  0  0  0
   -5.4026    2.0853   -2.3871 H   0  0  0  0  0  0  0  0  0  0  0  0
   -5.6139   -2.4529    1.1617 H   0  0  0  0  0  0  0  0  0  0  0  0
   -5.4053   -2.6727   -0.6135 H   0  0  0  0  0  0  0  0  0  0  0  0
   -2.3255    1.3496   -1.1900 H   0  0  0  0  0  0  0  0  0  0  0  0
   -0.2466   -2.5044    1.5012 H   0  0  0  0  0  0  0  0  0  0  0  0
   -0.7784   -1.4098    2.8788 H   0  0  0  0  0  0  0  0  0  0  0  0
    2.1363   -0.9336    2.4306 H   0  0  0  0  0  0  0  0  0  0  0  0
    1.8746    3.4126   -1.0545 H   0  0  0  0  0  0  0  0  0  0  0  0
    4.1986    3.9136   -0.4644 H   0  0  0  0  0  0  0  0  0  0  0  0
    6.1958    3.3740    0.7966 H   0  0  0  0  0  0  0  0  0  0  0  0
    5.3890    0.7902    2.8869 H   0  0  0  0  0  0  0  0  0  0  0  0
    4.0422   -0.2618    3.1438 H   0  0  0  0  0  0  0  0  0  0  0  0
    3.8921   -1.4123    0.1616 H   0  0  0  0  0  0  0  0  0  0  0  0
    3.8166   -2.3426    1.7252 H   0  0  0  0  0  0  0  0  0  0  0  0
    5.0861   -2.7101    0.5337 H   0  0  0  0  0  0  0  0  0  0  0  0
    7.0008   -1.2411    0.2894 H   0  0  0  0  0  0  0  0  0  0  0  0
    7.0685    0.3077    1.1716 H   0  0  0  0  0  0  0  0  0  0  0  0
    5.8955    0.0965   -0.2023 H   0  0  0  0  0  0  0  0  0  0  0  0
  1  2  1  0
  2  3  1  0
  3  4  1  6
  3  5  1  0
  5  6  2  0
  5  7  1  0
  7  8  1  0
  8  9  1  0
  9 10  2  0
 10 11  1  0
 11 12  2  0
 12 13  1  0
 13 14  1  0
 14 15  1  0
 15 16  2  0
 16 17  1  0
 17 18  2  0
 18 19  1  0
 19 20  2  0
 20 21  1  0
 21 22  1  0
 21 23  2  0
 23 24  1  0
 24 25  1  0
 25 26  1  0
 25 27  1  0
 18 28  1  0
 28 29  2  0
 13 30  1  0
 30 31  2  0
 10  3  1  0
 29 12  1  0
 30  9  1  0
 29 15  1  0
 23 17  1  0
  1 32  1  0
  1 33  1  0
  1 34  1  0
  2 35  1  0
  2 36  1  0
  4 37  1  0
  8 38  1  0
  8 39  1  0
 11 40  1  0
 14 41  1  0
 14 42  1  0
 16 43  1  0
 19 44  1  0
 20 45  1  0
 22 46  1  0
 24 47  1  0
 24 48  1  0
 26 49  1  0
 26 50  1  0
 26 51  1  0
 27 52  1  0
 27 53  1  0
 27 54  1  0
M  END
$$$$
