
     RDKit          3D

 51 51  0  0  0  0  0  0  0  0999 V2000
    0.9019   -1.3369   -1.5324 C   0  0  1  0  0  0  0  0  0  0  0  0
    1.4929   -0.6282   -0.2986 C   0  0  0  0  0  0  0  0  0  0  0  0
    2.9826   -0.4473   -0.4163 C   0  0  0  0  0  0  0  0  0  0  0  0
    3.5186    0.4116   -1.2966 C   0  0  0  0  0  0  0  0  0  0  0  0
    5.0069    0.5876   -1.4188 C   0  0  0  0  0  0  0  0  0  0  0  0
    5.5803    1.3245   -0.2024 C   0  0  0  0  0  0  0  0  0  0  0  0
    7.0891    1.5387   -0.3521 C   0  0  0  0  0  0  0  0  0  0  0  0
    7.6376    2.2517    0.8430 C   0  0  0  0  0  0  0  0  0  0  0  0
    8.0528    1.5239    1.9537 O   0  0  0  0  0  0  0  0  0  0  0  0
    7.6865    3.5108    0.8602 O   0  0  0  0  0  0  0  0  0  0  0  0
    1.3996   -2.7581   -1.6356 C   0  0  0  0  0  0  0  0  0  0  0  0
    0.4245   -3.6516   -1.5430 C   0  0  0  0  0  0  0  0  0  0  0  0
   -0.8375   -2.9654   -1.3887 C   0  0  0  0  0  0  0  0  0  0  0  0
   -1.9495   -3.5414   -1.2657 O   0  0  0  0  0  0  0  0  0  0  0  0
   -0.5868   -1.5254   -1.4032 C   0  0  0  0  0  0  0  0  0  0  0  0
   -1.4699   -0.5123   -1.3799 C   0  0  0  0  0  0  0  0  0  0  0  0
   -2.9339   -0.6742   -1.2830 C   0  0  0  0  0  0  0  0  0  0  0  0
   -3.7350    0.3945   -1.2498 C   0  0  0  0  0  0  0  0  0  0  0  0
   -5.2291    0.2586   -1.1519 C   0  0  0  0  0  0  0  0  0  0  0  0
   -5.6803   -0.2699    0.2182 C   0  0  0  0  0  0  0  0  0  0  0  0
   -5.3662    0.7170    1.3523 C   0  0  0  0  0  0  0  0  0  0  0  0
   -5.8727    0.1857    2.6980 C   0  0  0  0  0  0  0  0  0  0  0  0
   -5.5586    1.1605    3.8291 C   0  0  0  0  0  0  0  0  0  0  0  0
    1.1343   -0.7833   -2.4682 H   0  0  0  0  0  0  0  0  0  0  0  0
    1.0212    0.3697   -0.1673 H   0  0  0  0  0  0  0  0  0  0  0  0
    1.2742   -1.2240    0.6152 H   0  0  0  0  0  0  0  0  0  0  0  0
    3.6280   -1.0163    0.2473 H   0  0  0  0  0  0  0  0  0  0  0  0
    2.8725    0.9784   -1.9616 H   0  0  0  0  0  0  0  0  0  0  0  0
    5.4908   -0.4076   -1.5301 H   0  0  0  0  0  0  0  0  0  0  0  0
    5.2180    1.1777   -2.3370 H   0  0  0  0  0  0  0  0  0  0  0  0
    5.0761    2.3115   -0.1003 H   0  0  0  0  0  0  0  0  0  0  0  0
    5.3852    0.7316    0.7185 H   0  0  0  0  0  0  0  0  0  0  0  0
    7.2983    2.1360   -1.2666 H   0  0  0  0  0  0  0  0  0  0  0  0
    7.6007    0.5571   -0.4541 H   0  0  0  0  0  0  0  0  0  0  0  0
    8.4114    1.9923    2.7772 H   0  0  0  0  0  0  0  0  0  0  0  0
    2.4393   -3.0290   -1.7671 H   0  0  0  0  0  0  0  0  0  0  0  0
    0.5619   -4.7240   -1.5864 H   0  0  0  0  0  0  0  0  0  0  0  0
   -1.0788    0.4972   -1.4381 H   0  0  0  0  0  0  0  0  0  0  0  0
   -3.3817   -1.6547   -1.2362 H   0  0  0  0  0  0  0  0  0  0  0  0
   -3.3147    1.3918   -1.3137 H   0  0  0  0  0  0  0  0  0  0  0  0
   -5.5864   -0.4303   -1.9479 H   0  0  0  0  0  0  0  0  0  0  0  0
   -5.6982    1.2493   -1.3366 H   0  0  0  0  0  0  0  0  0  0  0  0
   -5.1958   -1.2494    0.4240 H   0  0  0  0  0  0  0  0  0  0  0  0
   -6.7786   -0.4394    0.1794 H   0  0  0  0  0  0  0  0  0  0  0  0
   -5.8524    1.6937    1.1357 H   0  0  0  0  0  0  0  0  0  0  0  0
   -4.2672    0.8751    1.4143 H   0  0  0  0  0  0  0  0  0  0  0  0
   -5.3902   -0.7909    2.9208 H   0  0  0  0  0  0  0  0  0  0  0  0
   -6.9730    0.0324    2.6508 H   0  0  0  0  0  0  0  0  0  0  0  0
   -5.9369    0.7503    4.7891 H   0  0  0  0  0  0  0  0  0  0  0  0
   -4.4614    1.3113    3.9151 H   0  0  0  0  0  0  0  0  0  0  0  0
   -6.0502    2.1392    3.6427 H   0  0  0  0  0  0  0  0  0  0  0  0
  1  2  1  0
  2  3  1  0
  3  4  2  0
  4  5  1  0
  5  6  1  0
  6  7  1  0
  7  8  1  0
  8  9  1  0
  8 10  2  0
  1 11  1  0
 11 12  2  0
 12 13  1  0
 13 14  2  0
 13 15  1  0
 15 16  2  0
 16 17  1  0
 17 18  2  0
 18 19  1  0
 19 20  1  0
 20 21  1  0
 21 22  1  0
 22 23  1  0
 15  1  1  0
  1 24  1  6
  2 25  1  0
  2 26  1  0
  3 27  1  0
  4 28  1  0
  5 29  1  0
  5 30  1  0
  6 31  1  0
  6 32  1  0
  7 33  1  0
  7 34  1  0
  9 35  1  0
 11 36  1  0
 12 37  1  0
 16 38  1  0
 17 39  1  0
 18 40  1  0
 19 41  1  0
 19 42  1  0
 20 43  1  0
 20 44  1  0
 21 45  1  0
 21 46  1  0
 22 47  1  0
 22 48  1  0
 23 49  1  0
 23 50  1  0
 23 51  1  0
M  END
$$$$
