
     RDKit          3D

 16 16  0  0  0  0  0  0  0  0999 V2000
    2.9190    0.1329   -0.3736 O   0  0  0  0  0  0  0  0  0  0  0  0
    1.8405    0.9974   -0.2070 C   0  0  0  0  0  0  0  0  0  0  0  0
    2.0522    2.2405   -0.1955 O   0  0  0  0  0  0  0  0  0  0  0  0
    0.4595    0.4731   -0.0447 C   0  0  0  0  0  0  0  0  0  0  0  0
   -0.6105    1.3753    0.1220 C   0  0  0  0  0  0  0  0  0  0  0  0
   -1.9186    0.9101    0.2768 C   0  0  0  0  0  0  0  0  0  0  0  0
   -2.1802   -0.4592    0.2678 C   0  0  0  0  0  0  0  0  0  0  0  0
   -1.1344   -1.3682    0.1040 C   0  0  0  0  0  0  0  0  0  0  0  0
    0.1847   -0.9151   -0.0525 C   0  0  0  0  0  0  0  0  0  0  0  0
    1.2109   -1.8457   -0.2145 O   0  0  0  0  0  0  0  0  0  0  0  0
    3.8606    0.4899   -0.4843 H   0  0  0  0  0  0  0  0  0  0  0  0
   -0.4382    2.4443    0.1332 H   0  0  0  0  0  0  0  0  0  0  0  0
   -2.7310    1.6139    0.4039 H   0  0  0  0  0  0  0  0  0  0  0  0
   -3.1946   -0.8170    0.3879 H   0  0  0  0  0  0  0  0  0  0  0  0
   -1.3499   -2.4292    0.0987 H   0  0  0  0  0  0  0  0  0  0  0  0
    1.0300   -2.8428   -0.2222 H   0  0  0  0  0  0  0  0  0  0  0  0
  1  2  1  0
  2  3  2  0
  2  4  1  0
  4  5  2  0
  5  6  1  0
  6  7  2  0
  7  8  1  0
  8  9  2  0
  9 10  1  0
  9  4  1  0
  1 11  1  0
  5 12  1  0
  6 13  1  0
  7 14  1  0
  8 15  1  0
 10 16  1  0
M  END
$$$$
