
     RDKit          3D

 57 60  0  0  0  0  0  0  0  0999 V2000
   -0.2299   -1.0712   -0.1273 C   0  0  2  0  0  0  0  0  0  0  0  0
   -0.8370   -2.4663   -0.1831 C   0  0  0  0  0  0  0  0  0  0  0  0
   -2.3098   -2.1673   -0.2032 C   0  0  0  0  0  0  0  0  0  0  0  0
   -3.2191   -3.1337   -0.0071 C   0  0  0  0  0  0  0  0  0  0  0  0
   -2.6015   -0.6756   -0.3326 C   0  0  2  0  0  0  0  0  0  0  0  0
   -2.7770   -0.1847    1.0108 O   0  0  0  0  0  0  0  0  0  0  0  0
   -3.2536    1.0843    1.3790 C   0  0  0  0  0  0  0  0  0  0  0  0
   -3.3330    1.4403    2.8235 C   0  0  0  0  0  0  0  0  0  0  0  0
   -3.5724    1.9405    0.5101 O   0  0  0  0  0  0  0  0  0  0  0  0
   -3.8823   -0.4178   -1.1574 C   0  0  0  0  0  0  0  0  0  0  0  0
   -5.2504   -0.5021   -0.5328 C   0  0  0  0  0  0  0  0  0  0  0  0
   -3.8351   -0.1695   -2.3499 O   0  0  0  0  0  0  0  0  0  0  0  0
   -1.2138   -0.1839   -0.9302 C   0  0  2  0  0  0  0  0  0  0  0  0
   -1.1235   -0.4677   -2.4717 C   0  0  0  0  0  0  0  0  0  0  0  0
   -0.8151    1.2905   -0.6703 C   0  0  0  0  0  0  0  0  0  0  0  0
    0.6566    1.5638   -1.0634 C   0  0  0  0  0  0  0  0  0  0  0  0
    1.6506    0.6073   -0.3463 C   0  0  2  0  0  0  0  0  0  0  0  0
    3.1269    0.7931   -0.8030 C   0  0  1  0  0  0  0  0  0  0  0  0
    3.6686    2.2442   -0.7657 C   0  0  0  0  0  0  0  0  0  0  0  0
    3.9267    2.7278    0.6617 C   0  0  0  0  0  0  0  0  0  0  0  0
    4.8015    1.7470    1.3829 C   0  0  0  0  0  0  0  0  0  0  0  0
    5.5529    2.1419    2.3132 O   0  0  0  0  0  0  0  0  0  0  0  0
    4.7263    0.3121    1.0640 C   0  0  0  0  0  0  0  0  0  0  0  0
    3.9774   -0.1393    0.0425 C   0  0  0  0  0  0  0  0  0  0  0  0
    3.6534   -1.6035   -0.0664 C   0  0  0  0  0  0  0  0  0  0  0  0
    2.1782   -1.8128    0.3103 C   0  0  0  0  0  0  0  0  0  0  0  0
    1.2508   -0.8988   -0.5305 C   0  0  1  0  0  0  0  0  0  0  0  0
   -0.2825   -0.7622    0.9461 H   0  0  0  0  0  0  0  0  0  0  0  0
   -0.5592   -3.0551    0.7185 H   0  0  0  0  0  0  0  0  0  0  0  0
   -0.5378   -3.0071   -1.1068 H   0  0  0  0  0  0  0  0  0  0  0  0
   -4.2785   -2.9246    0.0399 H   0  0  0  0  0  0  0  0  0  0  0  0
   -2.9021   -4.1646    0.1167 H   0  0  0  0  0  0  0  0  0  0  0  0
   -3.4323    0.5191    3.4351 H   0  0  0  0  0  0  0  0  0  0  0  0
   -4.2138    2.0905    3.0088 H   0  0  0  0  0  0  0  0  0  0  0  0
   -2.4093    1.9781    3.1218 H   0  0  0  0  0  0  0  0  0  0  0  0
   -5.8564   -1.2636   -1.0671 H   0  0  0  0  0  0  0  0  0  0  0  0
   -5.2014   -0.7829    0.5392 H   0  0  0  0  0  0  0  0  0  0  0  0
   -5.7580    0.4814   -0.6178 H   0  0  0  0  0  0  0  0  0  0  0  0
   -0.0954   -0.4694   -2.8700 H   0  0  0  0  0  0  0  0  0  0  0  0
   -1.5730   -1.4471   -2.7394 H   0  0  0  0  0  0  0  0  0  0  0  0
   -1.6333    0.3309   -3.0486 H   0  0  0  0  0  0  0  0  0  0  0  0
   -1.4837    1.9731   -1.2378 H   0  0  0  0  0  0  0  0  0  0  0  0
   -0.9079    1.5384    0.4065 H   0  0  0  0  0  0  0  0  0  0  0  0
    0.8724    2.6109   -0.7654 H   0  0  0  0  0  0  0  0  0  0  0  0
    0.7879    1.5044   -2.1639 H   0  0  0  0  0  0  0  0  0  0  0  0
    1.5938    0.8478    0.7406 H   0  0  0  0  0  0  0  0  0  0  0  0
    3.1996    0.4590   -1.8625 H   0  0  0  0  0  0  0  0  0  0  0  0
    2.9983    2.9495   -1.2959 H   0  0  0  0  0  0  0  0  0  0  0  0
    4.6338    2.2693   -1.3194 H   0  0  0  0  0  0  0  0  0  0  0  0
    2.9654    2.8345    1.2076 H   0  0  0  0  0  0  0  0  0  0  0  0
    4.4222    3.7221    0.6275 H   0  0  0  0  0  0  0  0  0  0  0  0
    5.2529   -0.3859    1.7041 H   0  0  0  0  0  0  0  0  0  0  0  0
    3.8212   -1.9371   -1.1134 H   0  0  0  0  0  0  0  0  0  0  0  0
    4.3000   -2.2231    0.5931 H   0  0  0  0  0  0  0  0  0  0  0  0
    1.9196   -2.8790    0.1340 H   0  0  0  0  0  0  0  0  0  0  0  0
    2.0415   -1.6013    1.3941 H   0  0  0  0  0  0  0  0  0  0  0  0
    1.3994   -1.2047   -1.5848 H   0  0  0  0  0  0  0  0  0  0  0  0
  1  2  1  0
  2  3  1  0
  3  4  2  3
  3  5  1  0
  5  6  1  1
  6  7  1  0
  7  8  1  0
  7  9  2  0
  5 10  1  0
 10 11  1  0
 10 12  2  0
  5 13  1  0
 13 14  1  6
 13 15  1  0
 15 16  1  0
 16 17  1  0
 17 18  1  0
 18 19  1  0
 19 20  1  0
 20 21  1  0
 21 22  2  0
 21 23  1  0
 23 24  2  0
 24 25  1  0
 25 26  1  0
 26 27  1  0
 13  1  1  0
 27 17  1  0
 27  1  1  0
 24 18  1  0
  1 28  1  1
  2 29  1  0
  2 30  1  0
  4 31  1  0
  4 32  1  0
  8 33  1  0
  8 34  1  0
  8 35  1  0
 11 36  1  0
 11 37  1  0
 11 38  1  0
 14 39  1  0
 14 40  1  0
 14 41  1  0
 15 42  1  0
 15 43  1  0
 16 44  1  0
 16 45  1  0
 17 46  1  1
 18 47  1  6
 19 48  1  0
 19 49  1  0
 20 50  1  0
 20 51  1  0
 23 52  1  0
 25 53  1  0
 25 54  1  0
 26 55  1  0
 26 56  1  0
 27 57  1  6
M  END
$$$$
