
     RDKit          3D

 52 56  0  0  0  0  0  0  0  0999 V2000
    6.2490    0.3909    0.9717 O   0  0  0  0  0  0  0  0  0  0  0  0
    5.5122    0.5133   -0.0446 C   0  0  0  0  0  0  0  0  0  0  0  0
    5.9667    0.0383   -1.3171 N   0  0  0  0  0  0  0  0  0  0  0  0
    7.2998   -0.5314   -1.4887 C   0  0  0  0  0  0  0  0  0  0  0  0
    7.4084   -1.9628   -0.9913 C   0  0  0  0  0  0  0  0  0  0  0  0
    7.3572   -1.6773   -2.4841 C   0  0  0  0  0  0  0  0  0  0  0  0
    4.2058    1.0954    0.0701 N   0  0  0  0  0  0  0  0  0  0  0  0
    3.7323    1.7594    1.2526 C   0  0  0  0  0  0  0  0  0  0  0  0
    4.4923    2.4241    2.1941 C   0  0  0  0  0  0  0  0  0  0  0  0
    3.6532    2.9981    3.0745 N   0  0  0  0  0  0  0  0  0  0  0  0
    2.3985    2.7408    2.7378 N   0  0  0  0  0  0  0  0  0  0  0  0
    2.4141    1.9869    1.6199 C   0  0  0  0  0  0  0  0  0  0  0  0
    1.1906    1.4892    0.9670 C   0  0  0  0  0  0  0  0  0  0  0  0
    1.1943    0.5984   -0.0606 N   0  0  0  0  0  0  0  0  0  0  0  0
   -0.1154    0.4239   -0.3104 C   0  0  0  0  0  0  0  0  0  0  0  0
   -0.6968   -0.3928   -1.2751 C   0  0  0  0  0  0  0  0  0  0  0  0
   -2.1021   -0.4190   -1.3505 C   0  0  0  0  0  0  0  0  0  0  0  0
   -2.8905    0.3640   -0.4648 C   0  0  0  0  0  0  0  0  0  0  0  0
   -4.3996    0.3241   -0.5435 C   0  0  0  0  0  0  0  0  0  0  0  0
   -4.9958   -0.4280    0.5922 N   0  0  0  0  0  4  0  0  0  0  0  0
   -6.4300   -0.1050    0.7548 C   0  0  0  0  0  0  0  0  0  0  0  0
   -7.2897   -0.6925   -0.3910 C   0  0  0  0  0  0  0  0  0  0  0  0
   -6.6263   -1.7065   -1.1258 O   0  0  0  0  0  0  0  0  0  0  0  0
   -5.9763   -2.5965   -0.2460 C   0  0  0  0  0  0  0  0  0  0  0  0
   -4.8016   -1.8973    0.4695 C   0  0  0  0  0  0  0  0  0  0  0  0
   -2.2568    1.1810    0.4994 C   0  0  0  0  0  0  0  0  0  0  0  0
   -0.8653    1.1779    0.5390 C   0  0  0  0  0  0  0  0  0  0  0  0
   -0.0552    1.8586    1.3582 N   0  0  0  0  0  0  0  0  0  0  0  0
    5.3702    0.1935   -2.1608 H   0  0  0  0  0  0  0  0  0  0  0  0
    8.1916    0.1187   -1.3643 H   0  0  0  0  0  0  0  0  0  0  0  0
    8.4160   -2.2438   -0.6191 H   0  0  0  0  0  0  0  0  0  0  0  0
    6.4732   -2.4026   -0.5826 H   0  0  0  0  0  0  0  0  0  0  0  0
    6.3927   -1.9518   -2.9627 H   0  0  0  0  0  0  0  0  0  0  0  0
    8.3347   -1.7878   -2.9990 H   0  0  0  0  0  0  0  0  0  0  0  0
    3.5740    1.0352   -0.7576 H   0  0  0  0  0  0  0  0  0  0  0  0
    5.5690    2.5228    2.2221 H   0  0  0  0  0  0  0  0  0  0  0  0
    3.9319    3.5768    3.8973 H   0  0  0  0  0  0  0  0  0  0  0  0
   -0.0900   -0.9887   -1.9445 H   0  0  0  0  0  0  0  0  0  0  0  0
   -2.5766   -1.0491   -2.0923 H   0  0  0  0  0  0  0  0  0  0  0  0
   -4.7577    1.3783   -0.5409 H   0  0  0  0  0  0  0  0  0  0  0  0
   -4.7182   -0.1077   -1.5175 H   0  0  0  0  0  0  0  0  0  0  0  0
   -4.5211   -0.1149    1.4729 H   0  0  0  0  0  0  0  0  0  0  0  0
   -6.7904   -0.5302    1.7194 H   0  0  0  0  0  0  0  0  0  0  0  0
   -6.5855    0.9950    0.8261 H   0  0  0  0  0  0  0  0  0  0  0  0
   -8.2498   -1.0845    0.0115 H   0  0  0  0  0  0  0  0  0  0  0  0
   -7.5443    0.1261   -1.0971 H   0  0  0  0  0  0  0  0  0  0  0  0
   -5.5885   -3.4572   -0.8309 H   0  0  0  0  0  0  0  0  0  0  0  0
   -6.6959   -3.0111    0.4979 H   0  0  0  0  0  0  0  0  0  0  0  0
   -3.8561   -2.1359   -0.0631 H   0  0  0  0  0  0  0  0  0  0  0  0
   -4.6995   -2.3455    1.4836 H   0  0  0  0  0  0  0  0  0  0  0  0
   -2.8285    1.7909    1.1878 H   0  0  0  0  0  0  0  0  0  0  0  0
   -0.3243    2.5187    2.1217 H   0  0  0  0  0  0  0  0  0  0  0  0
  1  2  2  0
  2  3  1  0
  3  4  1  0
  4  5  1  0
  5  6  1  0
  2  7  1  0
  7  8  1  0
  8  9  2  0
  9 10  1  0
 10 11  1  0
 11 12  2  0
 12 13  1  0
 13 14  2  0
 14 15  1  0
 15 16  2  0
 16 17  1  0
 17 18  2  0
 18 19  1  0
 19 20  1  0
 20 21  1  0
 21 22  1  0
 22 23  1  0
 23 24  1  0
 24 25  1  0
 18 26  1  0
 26 27  2  0
 27 28  1  0
  6  4  1  0
 12  8  1  0
 28 13  1  0
 27 15  1  0
 25 20  1  0
  3 29  1  0
  4 30  1  0
  5 31  1  0
  5 32  1  0
  6 33  1  0
  6 34  1  0
  7 35  1  0
  9 36  1  0
 10 37  1  0
 16 38  1  0
 17 39  1  0
 19 40  1  0
 19 41  1  0
 20 42  1  0
 21 43  1  0
 21 44  1  0
 22 45  1  0
 22 46  1  0
 24 47  1  0
 24 48  1  0
 25 49  1  0
 25 50  1  0
 26 51  1  0
 28 52  1  0
M  CHG  1  20   1
M  END
$$$$
