
     RDKit          3D

 46 48  0  0  0  0  0  0  0  0999 V2000
   -6.2503    2.8599   -0.8103 C   0  0  0  0  0  0  0  0  0  0  0  0
   -4.9835    3.4475   -0.6097 O   0  0  0  0  0  0  0  0  0  0  0  0
   -4.3293    2.8482    0.4932 C   0  0  0  0  0  0  0  0  0  0  0  0
   -3.3622    1.7640    0.0073 C   0  0  0  0  0  0  0  0  0  0  0  0
   -2.5792    1.1572    1.1694 C   0  0  0  0  0  0  0  0  0  0  0  0
   -1.6948    0.1575    0.6696 O   0  0  0  0  0  0  0  0  0  0  0  0
   -0.8147   -0.6030    1.4582 C   0  0  0  0  0  0  0  0  0  0  0  0
   -0.7502   -0.4327    2.8517 C   0  0  0  0  0  0  0  0  0  0  0  0
    0.1307   -1.2041    3.6020 C   0  0  0  0  0  0  0  0  0  0  0  0
    0.9281   -2.1136    2.9914 N   0  0  0  0  0  0  0  0  0  0  0  0
    0.9065   -2.3194    1.6465 C   0  0  0  0  0  0  0  0  0  0  0  0
    1.8701   -3.3344    1.0873 C   0  0  0  0  0  0  0  0  0  0  0  0
    3.5604   -2.7136    1.2283 S   0  0  0  0  0  4  0  0  0  0  0  0
    4.4228   -3.7966    0.5941 O   0  0  0  0  0  0  0  0  0  0  0  0
    3.6460   -1.3652    0.0784 C   0  0  0  0  0  0  0  0  0  0  0  0
    3.6866   -0.0663    0.4744 N   0  0  0  0  0  0  0  0  0  0  0  0
    3.6952    0.5956   -0.6964 C   0  0  0  0  0  0  0  0  0  0  0  0
    3.7182    1.9738   -0.8962 C   0  0  0  0  0  0  0  0  0  0  0  0
    3.7046    2.4422   -2.2243 C   0  0  0  0  0  0  0  0  0  0  0  0
    3.6663    1.5306   -3.3051 C   0  0  0  0  0  0  0  0  0  0  0  0
    3.6418    0.1433   -3.0666 C   0  0  0  0  0  0  0  0  0  0  0  0
    3.6598   -0.2810   -1.7401 C   0  0  0  0  0  0  0  0  0  0  0  0
    3.6296   -1.5317   -1.2663 N   0  0  0  0  0  0  0  0  0  0  0  0
    0.0225   -1.5578    0.8372 C   0  0  0  0  0  0  0  0  0  0  0  0
   -0.0523   -1.7748   -0.6559 C   0  0  0  0  0  0  0  0  0  0  0  0
   -6.1735    1.7590   -0.9505 H   0  0  0  0  0  0  0  0  0  0  0  0
   -6.6962    3.2860   -1.7323 H   0  0  0  0  0  0  0  0  0  0  0  0
   -6.9329    3.0965    0.0355 H   0  0  0  0  0  0  0  0  0  0  0  0
   -3.7435    3.6400    1.0074 H   0  0  0  0  0  0  0  0  0  0  0  0
   -5.0305    2.4307    1.2557 H   0  0  0  0  0  0  0  0  0  0  0  0
   -2.6494    2.2078   -0.7216 H   0  0  0  0  0  0  0  0  0  0  0  0
   -3.9306    0.9588   -0.5058 H   0  0  0  0  0  0  0  0  0  0  0  0
   -3.2870    0.6979    1.8938 H   0  0  0  0  0  0  0  0  0  0  0  0
   -1.9907    1.9533    1.6761 H   0  0  0  0  0  0  0  0  0  0  0  0
   -1.3742    0.2873    3.3628 H   0  0  0  0  0  0  0  0  0  0  0  0
    0.1842   -1.0777    4.6751 H   0  0  0  0  0  0  0  0  0  0  0  0
    1.6622   -3.6000    0.0322 H   0  0  0  0  0  0  0  0  0  0  0  0
    1.7894   -4.2693    1.6809 H   0  0  0  0  0  0  0  0  0  0  0  0
    3.7425    2.6615   -0.0608 H   0  0  0  0  0  0  0  0  0  0  0  0
    3.7213    3.5066   -2.4188 H   0  0  0  0  0  0  0  0  0  0  0  0
    3.6538    1.9014   -4.3217 H   0  0  0  0  0  0  0  0  0  0  0  0
    3.6083   -0.5657   -3.8835 H   0  0  0  0  0  0  0  0  0  0  0  0
    3.5818   -2.4248   -1.8054 H   0  0  0  0  0  0  0  0  0  0  0  0
   -0.4023   -2.8072   -0.8656 H   0  0  0  0  0  0  0  0  0  0  0  0
   -0.7502   -1.0751   -1.1587 H   0  0  0  0  0  0  0  0  0  0  0  0
    0.9449   -1.6224   -1.1127 H   0  0  0  0  0  0  0  0  0  0  0  0
  1  2  1  0
  2  3  1  0
  3  4  1  0
  4  5  1  0
  5  6  1  0
  6  7  1  0
  7  8  2  0
  8  9  1  0
  9 10  2  0
 10 11  1  0
 11 12  1  0
 13 12  1  6
 13 14  2  0
 13 15  1  0
 15 16  2  0
 16 17  1  0
 17 18  2  0
 18 19  1  0
 19 20  2  0
 20 21  1  0
 21 22  2  0
 22 23  1  0
 11 24  2  0
 24 25  1  0
 24  7  1  0
 23 15  1  0
 22 17  1  0
  1 26  1  0
  1 27  1  0
  1 28  1  0
  3 29  1  0
  3 30  1  0
  4 31  1  0
  4 32  1  0
  5 33  1  0
  5 34  1  0
  8 35  1  0
  9 36  1  0
 12 37  1  0
 12 38  1  0
 18 39  1  0
 19 40  1  0
 20 41  1  0
 21 42  1  0
 23 43  1  0
 25 44  1  0
 25 45  1  0
 25 46  1  0
M  END
$$$$
