
     RDKit          3D

 38 39  0  0  0  0  0  0  0  0999 V2000
    4.9363    0.3688   -1.5121 C   0  0  0  0  0  0  0  0  0  0  0  0
    4.2014   -0.6958   -0.9152 O   0  0  0  0  0  0  0  0  0  0  0  0
    2.8976   -0.5918   -0.3992 C   0  0  0  0  0  0  0  0  0  0  0  0
    2.2669   -1.7299    0.1740 C   0  0  0  0  0  0  0  0  0  0  0  0
    0.9451   -1.5942    0.7082 C   0  0  0  0  0  0  0  0  0  0  0  0
    0.2744   -2.6773    1.3243 C   0  0  0  0  0  0  0  0  0  0  0  0
   -1.0104   -2.5288    1.8406 C   0  0  0  0  0  0  0  0  0  0  0  0
   -1.6667   -1.3078    1.7537 C   0  0  0  0  0  0  0  0  0  0  0  0
   -1.0461   -0.2097    1.1486 C   0  0  0  0  0  0  0  0  0  0  0  0
   -1.8079    1.0563    1.0543 C   0  0  0  0  0  0  0  0  0  0  0  0
   -2.1577    1.8530    2.4488 S   0  0  0  0  0  0  0  0  0  0  0  0
   -2.2684    1.5484   -0.2273 N   0  0  0  0  0  0  0  0  0  0  0  0
   -2.3911    0.6194   -1.3567 C   0  0  0  0  0  0  0  0  0  0  0  0
   -2.6790    2.9480   -0.4068 C   0  0  0  0  0  0  0  0  0  0  0  0
   -4.1295    3.1112   -0.0777 C   0  0  0  0  0  0  0  0  0  0  0  0
   -5.0920    2.4754   -0.8554 O   0  0  0  0  0  0  0  0  0  0  0  0
   -4.4804    3.8202    0.9030 O   0  0  0  0  0  0  0  0  0  0  0  0
    0.2708   -0.3406    0.6328 C   0  0  0  0  0  0  0  0  0  0  0  0
    0.9299    0.7577    0.0612 C   0  0  0  0  0  0  0  0  0  0  0  0
    2.2152    0.6334   -0.4437 C   0  0  0  0  0  0  0  0  0  0  0  0
    2.9862   -3.0791    0.2282 C   0  0  0  0  0  0  0  0  0  0  0  0
    3.1558   -3.4588    1.5478 F   0  0  0  0  0  0  0  0  0  0  0  0
    4.2352   -3.0667   -0.3632 F   0  0  0  0  0  0  0  0  0  0  0  0
    2.2314   -4.0331   -0.4315 F   0  0  0  0  0  0  0  0  0  0  0  0
    4.4020    0.7463   -2.4094 H   0  0  0  0  0  0  0  0  0  0  0  0
    5.0852    1.1891   -0.7785 H   0  0  0  0  0  0  0  0  0  0  0  0
    5.9305   -0.0098   -1.8258 H   0  0  0  0  0  0  0  0  0  0  0  0
    0.7260   -3.6520    1.4260 H   0  0  0  0  0  0  0  0  0  0  0  0
   -1.5037   -3.3712    2.3087 H   0  0  0  0  0  0  0  0  0  0  0  0
   -2.6713   -1.2204    2.1501 H   0  0  0  0  0  0  0  0  0  0  0  0
   -1.3866    0.2705   -1.6730 H   0  0  0  0  0  0  0  0  0  0  0  0
   -2.8808    1.1032   -2.2285 H   0  0  0  0  0  0  0  0  0  0  0  0
   -3.0079   -0.2547   -1.0587 H   0  0  0  0  0  0  0  0  0  0  0  0
   -2.5135    3.2667   -1.4584 H   0  0  0  0  0  0  0  0  0  0  0  0
   -2.0541    3.6180    0.2230 H   0  0  0  0  0  0  0  0  0  0  0  0
   -6.0779    2.5730   -0.6443 H   0  0  0  0  0  0  0  0  0  0  0  0
    0.4595    1.7307    0.0039 H   0  0  0  0  0  0  0  0  0  0  0  0
    2.6753    1.5130   -0.8721 H   0  0  0  0  0  0  0  0  0  0  0  0
  1  2  1  0
  2  3  1  0
  3  4  2  0
  4  5  1  0
  5  6  2  0
  6  7  1  0
  7  8  2  0
  8  9  1  0
  9 10  1  0
 10 11  2  0
 10 12  1  0
 12 13  1  0
 12 14  1  0
 14 15  1  0
 15 16  1  0
 15 17  2  0
  9 18  2  0
 18 19  1  0
 19 20  2  0
  4 21  1  0
 21 22  1  0
 21 23  1  0
 21 24  1  0
 20  3  1  0
 18  5  1  0
  1 25  1  0
  1 26  1  0
  1 27  1  0
  6 28  1  0
  7 29  1  0
  8 30  1  0
 13 31  1  0
 13 32  1  0
 13 33  1  0
 14 34  1  0
 14 35  1  0
 16 36  1  0
 19 37  1  0
 20 38  1  0
M  END
$$$$
