
     RDKit          3D

 16 15  0  0  0  0  0  0  0  0999 V2000
   -2.4739    0.8733   -0.6030 N   0  0  0  0  0  0  0  0  0  0  0  0
   -1.4740    0.5987    0.4240 C   0  0  0  0  0  0  0  0  0  0  0  0
   -0.2174   -0.0025   -0.2110 C   0  0  0  0  0  0  0  0  0  0  0  0
    0.8564   -0.2773    0.8456 C   0  0  0  0  0  0  0  0  0  0  0  0
    2.0786   -0.8605    0.2102 C   0  0  0  0  0  0  0  0  0  0  0  0
    3.0687   -0.0196   -0.2882 O   0  0  0  0  0  0  0  0  0  0  0  0
    2.1934   -2.1096    0.0903 O   0  0  0  0  0  0  0  0  0  0  0  0
   -2.8374   -0.0411   -0.9583 H   0  0  0  0  0  0  0  0  0  0  0  0
   -3.2803    1.3532   -0.1414 H   0  0  0  0  0  0  0  0  0  0  0  0
   -1.2090    1.5500    0.9363 H   0  0  0  0  0  0  0  0  0  0  0  0
   -1.8930   -0.1044    1.1789 H   0  0  0  0  0  0  0  0  0  0  0  0
   -0.4848   -0.9539   -0.7221 H   0  0  0  0  0  0  0  0  0  0  0  0
    0.1816    0.7063   -0.9702 H   0  0  0  0  0  0  0  0  0  0  0  0
    1.1324    0.6697    1.3582 H   0  0  0  0  0  0  0  0  0  0  0  0
    0.4640   -0.9840    1.6094 H   0  0  0  0  0  0  0  0  0  0  0  0
    3.8948   -0.3983   -0.7358 H   0  0  0  0  0  0  0  0  0  0  0  0
  1  2  1  0
  2  3  1  0
  3  4  1  0
  4  5  1  0
  5  6  1  0
  5  7  2  0
  1  8  1  0
  1  9  1  0
  2 10  1  0
  2 11  1  0
  3 12  1  0
  3 13  1  0
  4 14  1  0
  4 15  1  0
  6 16  1  0
M  END
$$$$
