
     RDKit          3D

 54 57  0  0  0  0  0  0  0  0999 V2000
    1.0008    1.1808   -0.2183 C   0  0  2  0  0  0  0  0  0  0  0  0
    1.8400    2.0725   -1.1271 C   0  0  0  0  0  0  0  0  0  0  0  0
    3.2948    1.8248   -0.6888 C   0  0  0  0  0  0  0  0  0  0  0  0
    3.2593    0.7086    0.4012 C   0  0  2  0  0  0  0  0  0  0  0  0
    3.1884    1.3256    1.6694 O   0  0  0  0  0  0  0  0  0  0  0  0
    4.4752   -0.2232    0.3677 C   0  0  0  0  0  0  0  0  0  0  0  0
    5.1990   -0.2642   -0.6167 O   0  0  0  0  0  0  0  0  0  0  0  0
    4.7910   -1.1312    1.5281 C   0  0  0  0  0  0  0  0  0  0  0  0
    4.6819   -2.4728    1.1373 O   0  0  0  0  0  0  0  0  0  0  0  0
    1.9130   -0.0201    0.1034 C   0  0  2  0  0  0  0  0  0  0  0  0
    2.0732   -1.0018   -1.1072 C   0  0  0  0  0  0  0  0  0  0  0  0
    1.2850   -0.7916    1.2879 C   0  0  0  0  0  0  0  0  0  0  0  0
   -0.1418   -1.1676    0.9442 C   0  0  0  0  0  0  0  0  0  0  0  0
   -0.5062   -2.3171    1.1321 O   0  0  0  0  0  0  0  0  0  0  0  0
   -1.0997   -0.0878    0.4193 C   0  0  1  0  0  0  0  0  0  0  0  0
   -0.4080    0.7587   -0.7023 C   0  0  1  0  0  0  0  0  0  0  0  0
   -1.2723    1.9872   -1.0265 C   0  0  0  0  0  0  0  0  0  0  0  0
   -2.6447    1.5586   -1.5373 C   0  0  0  0  0  0  0  0  0  0  0  0
   -3.3291    0.6299   -0.5603 C   0  0  0  0  0  0  0  0  0  0  0  0
   -4.6570    0.7624   -0.3815 C   0  0  0  0  0  0  0  0  0  0  0  0
   -5.4308   -0.1694    0.4489 C   0  0  0  0  0  0  0  0  0  0  0  0
   -6.6686    0.0098    0.5974 O   0  0  0  0  0  0  0  0  0  0  0  0
   -4.7757   -1.3612    1.0669 C   0  0  0  0  0  0  0  0  0  0  0  0
   -3.2840   -1.0986    1.2921 C   0  0  0  0  0  0  0  0  0  0  0  0
   -2.5510   -0.5671    0.0153 C   0  0  2  0  0  0  0  0  0  0  0  0
   -2.5101   -1.6739   -1.0708 C   0  0  0  0  0  0  0  0  0  0  0  0
    0.8450    1.7671    0.7203 H   0  0  0  0  0  0  0  0  0  0  0  0
    1.5634    3.1419   -0.9993 H   0  0  0  0  0  0  0  0  0  0  0  0
    1.7000    1.7875   -2.1929 H   0  0  0  0  0  0  0  0  0  0  0  0
    3.8808    1.5218   -1.5827 H   0  0  0  0  0  0  0  0  0  0  0  0
    3.7466    2.7617   -0.2956 H   0  0  0  0  0  0  0  0  0  0  0  0
    4.0440    1.8072    1.8231 H   0  0  0  0  0  0  0  0  0  0  0  0
    5.8167   -0.9142    1.9032 H   0  0  0  0  0  0  0  0  0  0  0  0
    4.0892   -0.9537    2.3686 H   0  0  0  0  0  0  0  0  0  0  0  0
    5.5110   -2.6939    0.6378 H   0  0  0  0  0  0  0  0  0  0  0  0
    2.4658   -0.4901   -2.0094 H   0  0  0  0  0  0  0  0  0  0  0  0
    1.1197   -1.4951   -1.3826 H   0  0  0  0  0  0  0  0  0  0  0  0
    2.7719   -1.8251   -0.8513 H   0  0  0  0  0  0  0  0  0  0  0  0
    1.8795   -1.7039    1.5110 H   0  0  0  0  0  0  0  0  0  0  0  0
    1.2643   -0.1686    2.2072 H   0  0  0  0  0  0  0  0  0  0  0  0
   -1.2333    0.6052    1.2817 H   0  0  0  0  0  0  0  0  0  0  0  0
   -0.3057    0.1729   -1.6369 H   0  0  0  0  0  0  0  0  0  0  0  0
   -1.3933    2.6259   -0.1233 H   0  0  0  0  0  0  0  0  0  0  0  0
   -0.7846    2.5989   -1.8157 H   0  0  0  0  0  0  0  0  0  0  0  0
   -3.2470    2.4770   -1.7148 H   0  0  0  0  0  0  0  0  0  0  0  0
   -2.5346    1.0380   -2.5132 H   0  0  0  0  0  0  0  0  0  0  0  0
   -5.1924    1.5757   -0.8577 H   0  0  0  0  0  0  0  0  0  0  0  0
   -5.2563   -1.5861    2.0438 H   0  0  0  0  0  0  0  0  0  0  0  0
   -4.9181   -2.2424    0.4067 H   0  0  0  0  0  0  0  0  0  0  0  0
   -3.1897   -0.3535    2.1135 H   0  0  0  0  0  0  0  0  0  0  0  0
   -2.8328   -2.0423    1.6578 H   0  0  0  0  0  0  0  0  0  0  0  0
   -2.1247   -2.6325   -0.6711 H   0  0  0  0  0  0  0  0  0  0  0  0
   -3.5279   -1.8705   -1.4694 H   0  0  0  0  0  0  0  0  0  0  0  0
   -1.8805   -1.3799   -1.9333 H   0  0  0  0  0  0  0  0  0  0  0  0
  1  2  1  0
  2  3  1  0
  3  4  1  0
  4  5  1  1
  4  6  1  0
  6  7  2  0
  6  8  1  0
  8  9  1  0
  4 10  1  0
 10 11  1  6
 10 12  1  0
 12 13  1  0
 13 14  2  0
 13 15  1  0
 15 16  1  0
 16 17  1  0
 17 18  1  0
 18 19  1  0
 19 20  2  0
 20 21  1  0
 21 22  2  0
 21 23  1  0
 23 24  1  0
 24 25  1  0
 25 26  1  6
 10  1  1  0
 25 15  1  0
 16  1  1  0
 25 19  1  0
  1 27  1  1
  2 28  1  0
  2 29  1  0
  3 30  1  0
  3 31  1  0
  5 32  1  0
  8 33  1  0
  8 34  1  0
  9 35  1  0
 11 36  1  0
 11 37  1  0
 11 38  1  0
 12 39  1  0
 12 40  1  0
 15 41  1  1
 16 42  1  6
 17 43  1  0
 17 44  1  0
 18 45  1  0
 18 46  1  0
 20 47  1  0
 23 48  1  0
 23 49  1  0
 24 50  1  0
 24 51  1  0
 26 52  1  0
 26 53  1  0
 26 54  1  0
M  END
$$$$
