
     RDKit          3D

 52 53  0  0  0  0  0  0  0  0999 V2000
   -0.9959    0.8081   -0.4343 C   0  0  2  0  0  0  0  0  0  0  0  0
    0.0946   -0.2714   -0.3094 C   0  0  0  0  0  0  0  0  0  0  0  0
    1.7460    0.4137   -0.3955 S   0  0  0  0  0  6  0  0  0  0  0  0
    1.8723    1.5609    0.5678 O   0  0  0  0  0  0  0  0  0  0  0  0
    2.0264    0.8983   -1.7906 O   0  0  0  0  0  0  0  0  0  0  0  0
    2.9184   -0.8618    0.0334 C   0  0  0  0  0  0  0  0  0  0  0  0
    4.3256   -0.3270   -0.0285 C   0  0  0  0  0  0  0  0  0  0  0  0
    4.9076    0.3141    1.0867 C   0  0  0  0  0  0  0  0  0  0  0  0
    4.1638    0.4209    2.2745 O   0  0  0  0  0  0  0  0  0  0  0  0
    4.6024    1.0844    3.4563 C   0  0  0  0  0  0  0  0  0  0  0  0
    3.6499    0.9230    4.4436 F   0  0  0  0  0  0  0  0  0  0  0  0
    4.7656    2.4350    3.2061 F   0  0  0  0  0  0  0  0  0  0  0  0
    6.2158    0.8287    0.9791 C   0  0  0  0  0  0  0  0  0  0  0  0
    6.9239    0.7166   -0.2194 C   0  0  0  0  0  0  0  0  0  0  0  0
    6.3397    0.0955   -1.3230 C   0  0  0  0  0  0  0  0  0  0  0  0
    5.0461   -0.4205   -1.2312 C   0  0  0  0  0  0  0  0  0  0  0  0
   -2.2824    0.2307   -0.2114 O   0  0  0  0  0  0  0  0  0  0  0  0
   -2.7717   -0.1190    1.0540 C   0  0  0  0  0  0  0  0  0  0  0  0
   -2.0885    0.1284    2.0862 O   0  0  0  0  0  0  0  0  0  0  0  0
   -4.0586   -0.7539    1.1735 N   0  0  0  0  0  0  0  0  0  0  0  0
   -4.6712   -0.9260    2.4969 C   0  0  0  0  0  0  0  0  0  0  0  0
   -5.6895   -2.0696    2.4680 C   0  0  0  0  0  0  0  0  0  0  0  0
   -6.5982   -1.9070    1.3973 O   0  0  0  0  0  0  0  0  0  0  0  0
   -5.9084   -2.0328    0.1698 C   0  0  0  0  0  0  0  0  0  0  0  0
   -4.9101   -0.8861   -0.0145 C   0  0  0  0  0  0  0  0  0  0  0  0
   -0.9861    1.4318   -1.8020 C   0  0  0  0  0  0  0  0  0  0  0  0
   -0.5901    2.6216   -1.9378 O   0  0  0  0  0  0  0  0  0  0  0  0
   -1.4076    0.6758   -2.9477 N   0  0  0  0  0  0  0  0  0  0  0  0
   -1.3709    1.2208   -4.3016 C   0  0  0  0  0  0  0  0  0  0  0  0
   -2.4096    2.2433   -4.4636 C   0  0  0  0  0  0  0  0  0  0  0  0
   -3.2292    3.0502   -4.5909 N   0  0  0  0  0  0  0  0  0  0  0  0
   -0.8205    1.6039    0.3242 H   0  0  0  0  0  0  0  0  0  0  0  0
   -0.0236   -1.0376   -1.1049 H   0  0  0  0  0  0  0  0  0  0  0  0
   -0.0060   -0.7857    0.6689 H   0  0  0  0  0  0  0  0  0  0  0  0
    2.7961   -1.7123   -0.6710 H   0  0  0  0  0  0  0  0  0  0  0  0
    2.6874   -1.2448    1.0498 H   0  0  0  0  0  0  0  0  0  0  0  0
    5.5588    0.6455    3.8107 H   0  0  0  0  0  0  0  0  0  0  0  0
    6.6950    1.3192    1.8147 H   0  0  0  0  0  0  0  0  0  0  0  0
    7.9273    1.1158   -0.2937 H   0  0  0  0  0  0  0  0  0  0  0  0
    6.8890    0.0160   -2.2522 H   0  0  0  0  0  0  0  0  0  0  0  0
    4.6036   -0.8920   -2.1001 H   0  0  0  0  0  0  0  0  0  0  0  0
   -5.1805    0.0181    2.7879 H   0  0  0  0  0  0  0  0  0  0  0  0
   -3.8992   -1.1641    3.2604 H   0  0  0  0  0  0  0  0  0  0  0  0
   -6.2606   -2.0612    3.4202 H   0  0  0  0  0  0  0  0  0  0  0  0
   -5.1693   -3.0535    2.4108 H   0  0  0  0  0  0  0  0  0  0  0  0
   -5.3900   -3.0165    0.0964 H   0  0  0  0  0  0  0  0  0  0  0  0
   -6.6489   -1.9956   -0.6568 H   0  0  0  0  0  0  0  0  0  0  0  0
   -5.4614    0.0655   -0.1754 H   0  0  0  0  0  0  0  0  0  0  0  0
   -4.2966   -1.0989   -0.9168 H   0  0  0  0  0  0  0  0  0  0  0  0
   -1.7025   -0.3187   -2.8211 H   0  0  0  0  0  0  0  0  0  0  0  0
   -0.3727    1.6619   -4.5078 H   0  0  0  0  0  0  0  0  0  0  0  0
   -1.5554    0.4081   -5.0356 H   0  0  0  0  0  0  0  0  0  0  0  0
  1  2  1  0
  2  3  1  0
  3  4  2  0
  3  5  2  0
  3  6  1  0
  6  7  1  0
  7  8  2  0
  8  9  1  0
  9 10  1  0
 10 11  1  0
 10 12  1  0
  8 13  1  0
 13 14  2  0
 14 15  1  0
 15 16  2  0
  1 17  1  0
 17 18  1  0
 18 19  2  0
 18 20  1  0
 20 21  1  0
 21 22  1  0
 22 23  1  0
 23 24  1  0
 24 25  1  0
  1 26  1  0
 26 27  2  0
 26 28  1  0
 28 29  1  0
 29 30  1  0
 30 31  3  0
 16  7  1  0
 25 20  1  0
  1 32  1  1
  2 33  1  0
  2 34  1  0
  6 35  1  0
  6 36  1  0
 10 37  1  0
 13 38  1  0
 14 39  1  0
 15 40  1  0
 16 41  1  0
 21 42  1  0
 21 43  1  0
 22 44  1  0
 22 45  1  0
 24 46  1  0
 24 47  1  0
 25 48  1  0
 25 49  1  0
 28 50  1  0
 29 51  1  0
 29 52  1  0
M  END
$$$$
