
     RDKit          3D

 49 51  0  0  0  0  0  0  0  0999 V2000
   -0.3925   -2.5861   -3.0850 C   0  0  0  0  0  0  0  0  0  0  0  0
   -0.4559   -2.1476   -1.6512 C   0  0  0  0  0  0  0  0  0  0  0  0
    0.7242   -1.8835   -0.9419 C   0  0  0  0  0  0  0  0  0  0  0  0
    0.6713   -1.5060    0.4126 C   0  0  0  0  0  0  0  0  0  0  0  0
    1.8202   -1.2183    1.1675 O   0  0  0  0  0  0  0  0  0  0  0  0
    3.1458   -1.0875    0.6515 C   0  0  0  0  0  0  0  0  0  0  0  0
    3.3054    0.2205   -0.1317 C   0  0  0  0  0  0  0  0  0  0  0  0
    2.8883    1.3683    0.6756 N   0  0  0  0  0  0  0  0  0  0  0  0
    3.6199    1.8895    1.8023 C   0  0  0  0  0  0  0  0  0  0  0  0
    4.9309    1.4751    2.1000 C   0  0  0  0  0  0  0  0  0  0  0  0
    5.5935    2.0187    3.2035 C   0  0  0  0  0  0  0  0  0  0  0  0
    4.9782    2.9470    3.9843 N   0  0  0  0  0  4  0  0  0  0  0  0
    3.7143    3.3713    3.7160 C   0  0  0  0  0  0  0  0  0  0  0  0
    3.0165    2.8534    2.6227 C   0  0  0  0  0  0  0  0  0  0  0  0
   -0.5713   -1.4173    1.0490 C   0  0  0  0  0  0  0  0  0  0  0  0
   -1.7607   -1.6865    0.3565 C   0  0  0  0  0  0  0  0  0  0  0  0
   -3.0165   -1.5714    1.0493 N   0  0  0  0  0  0  0  0  0  0  0  0
   -4.5554   -1.4978    0.2498 S   0  0  0  0  0  6  0  0  0  0  0  0
   -4.8864   -2.8557   -0.3039 O   0  0  0  0  0  0  0  0  0  0  0  0
   -5.6123   -1.1030    1.2422 O   0  0  0  0  0  0  0  0  0  0  0  0
   -4.5081   -0.2939   -1.0346 C   0  0  0  0  0  0  0  0  0  0  0  0
   -5.1239   -0.5448   -2.2696 C   0  0  0  0  0  0  0  0  0  0  0  0
   -5.0648    0.4100   -3.2898 C   0  0  0  0  0  0  0  0  0  0  0  0
   -4.3933    1.6181   -3.0805 C   0  0  0  0  0  0  0  0  0  0  0  0
   -3.7819    1.8739   -1.8497 C   0  0  0  0  0  0  0  0  0  0  0  0
   -3.8400    0.9214   -0.8277 C   0  0  0  0  0  0  0  0  0  0  0  0
   -1.6922   -2.0679   -0.9953 C   0  0  0  0  0  0  0  0  0  0  0  0
    0.4912   -2.1437   -3.5925 H   0  0  0  0  0  0  0  0  0  0  0  0
   -1.3010   -2.2597   -3.6349 H   0  0  0  0  0  0  0  0  0  0  0  0
   -0.3197   -3.6927   -3.1297 H   0  0  0  0  0  0  0  0  0  0  0  0
    1.6724   -1.9814   -1.4515 H   0  0  0  0  0  0  0  0  0  0  0  0
    3.4093   -1.9599    0.0174 H   0  0  0  0  0  0  0  0  0  0  0  0
    3.8509   -1.0904    1.5075 H   0  0  0  0  0  0  0  0  0  0  0  0
    4.3544    0.3463   -0.4719 H   0  0  0  0  0  0  0  0  0  0  0  0
    2.6779    0.1769   -1.0466 H   0  0  0  0  0  0  0  0  0  0  0  0
    1.9862    1.8280    0.4145 H   0  0  0  0  0  0  0  0  0  0  0  0
    5.4484    0.7471    1.4921 H   0  0  0  0  0  0  0  0  0  0  0  0
    6.6022    1.7005    3.4352 H   0  0  0  0  0  0  0  0  0  0  0  0
    5.4876    3.3437    4.8053 H   0  0  0  0  0  0  0  0  0  0  0  0
    3.2461    4.1129    4.3509 H   0  0  0  0  0  0  0  0  0  0  0  0
    2.0103    3.1980    2.4193 H   0  0  0  0  0  0  0  0  0  0  0  0
   -0.6097   -1.1261    2.0916 H   0  0  0  0  0  0  0  0  0  0  0  0
   -3.0135   -1.4173    2.0825 H   0  0  0  0  0  0  0  0  0  0  0  0
   -5.6457   -1.4767   -2.4448 H   0  0  0  0  0  0  0  0  0  0  0  0
   -5.5387    0.2131   -4.2427 H   0  0  0  0  0  0  0  0  0  0  0  0
   -4.3474    2.3558   -3.8712 H   0  0  0  0  0  0  0  0  0  0  0  0
   -3.2624    2.8095   -1.6880 H   0  0  0  0  0  0  0  0  0  0  0  0
   -3.3614    1.1283    0.1211 H   0  0  0  0  0  0  0  0  0  0  0  0
   -2.5905   -2.3120   -1.5445 H   0  0  0  0  0  0  0  0  0  0  0  0
  1  2  1  0
  2  3  2  0
  3  4  1  0
  4  5  1  0
  5  6  1  0
  6  7  1  0
  7  8  1  0
  8  9  1  0
  9 10  2  0
 10 11  1  0
 11 12  2  0
 12 13  1  0
 13 14  2  0
  4 15  2  0
 15 16  1  0
 16 17  1  0
 17 18  1  0
 18 19  2  0
 18 20  2  0
 18 21  1  0
 21 22  2  0
 22 23  1  0
 23 24  2  0
 24 25  1  0
 25 26  2  0
 16 27  2  0
 27  2  1  0
 14  9  1  0
 26 21  1  0
  1 28  1  0
  1 29  1  0
  1 30  1  0
  3 31  1  0
  6 32  1  0
  6 33  1  0
  7 34  1  0
  7 35  1  0
  8 36  1  0
 10 37  1  0
 11 38  1  0
 12 39  1  0
 13 40  1  0
 14 41  1  0
 15 42  1  0
 17 43  1  0
 22 44  1  0
 23 45  1  0
 24 46  1  0
 25 47  1  0
 26 48  1  0
 27 49  1  0
M  CHG  1  12   1
M  END
$$$$
