
     RDKit          3D

 35 36  0  0  0  0  0  0  0  0999 V2000
   -6.4919   -0.8866    0.1390 C   0  0  0  0  0  0  0  0  0  0  0  0
   -5.0356   -0.5218    0.0083 C   0  0  0  0  0  0  0  0  0  0  0  0
   -4.5910    0.6714    0.5808 O   0  0  0  0  0  0  0  0  0  0  0  0
   -4.1714   -1.3000   -0.6770 C   0  0  0  0  0  0  0  0  0  0  0  0
   -4.6311   -2.4745   -1.3847 C   0  0  0  0  0  0  0  0  0  0  0  0
   -4.9985   -3.4144   -1.9511 N   0  0  0  0  0  0  0  0  0  0  0  0
   -2.7364   -0.9619   -0.7862 C   0  0  0  0  0  0  0  0  0  0  0  0
   -2.1778   -1.0417   -1.9139 O   0  0  0  0  0  0  0  0  0  0  0  0
   -1.9816   -0.5631    0.3730 N   0  0  0  0  0  0  0  0  0  0  0  0
   -0.5808   -0.2420    0.3491 C   0  0  0  0  0  0  0  0  0  0  0  0
    0.3325   -0.9963   -0.4078 C   0  0  0  0  0  0  0  0  0  0  0  0
    1.6966   -0.6815   -0.3971 C   0  0  0  0  0  0  0  0  0  0  0  0
    2.7905   -1.6319   -1.3975 Cl  0  0  0  0  0  0  0  0  0  0  0  0
    2.1646    0.3862    0.3939 C   0  0  0  0  0  0  0  0  0  0  0  0
    1.2541    1.1278    1.1596 C   0  0  0  0  0  0  0  0  0  0  0  0
   -0.1054    0.8082    1.1457 C   0  0  0  0  0  0  0  0  0  0  0  0
    3.5963    0.7440    0.4311 C   0  0  0  0  0  0  0  0  0  0  0  0
    4.0304    1.9026   -0.2321 C   0  0  0  0  0  0  0  0  0  0  0  0
    5.3807    2.2619   -0.2134 C   0  0  0  0  0  0  0  0  0  0  0  0
    6.3058    1.4713    0.4720 C   0  0  0  0  0  0  0  0  0  0  0  0
    5.8823    0.3221    1.1446 C   0  0  0  0  0  0  0  0  0  0  0  0
    4.5314   -0.0463    1.1317 C   0  0  0  0  0  0  0  0  0  0  0  0
    4.0374   -1.4810    2.0246 Cl  0  0  0  0  0  0  0  0  0  0  0  0
   -6.5937   -1.9063    0.5674 H   0  0  0  0  0  0  0  0  0  0  0  0
   -6.9800   -0.8530   -0.8578 H   0  0  0  0  0  0  0  0  0  0  0  0
   -7.0169   -0.1767    0.8114 H   0  0  0  0  0  0  0  0  0  0  0  0
   -5.2165    1.2853    1.0885 H   0  0  0  0  0  0  0  0  0  0  0  0
   -2.4834   -0.4436    1.2813 H   0  0  0  0  0  0  0  0  0  0  0  0
   -0.0057   -1.8440   -0.9885 H   0  0  0  0  0  0  0  0  0  0  0  0
    1.5997    1.9496    1.7751 H   0  0  0  0  0  0  0  0  0  0  0  0
   -0.7936    1.3874    1.7486 H   0  0  0  0  0  0  0  0  0  0  0  0
    3.3230    2.5232   -0.7688 H   0  0  0  0  0  0  0  0  0  0  0  0
    5.7100    3.1537   -0.7306 H   0  0  0  0  0  0  0  0  0  0  0  0
    7.3511    1.7517    0.4859 H   0  0  0  0  0  0  0  0  0  0  0  0
    6.6051   -0.2797    1.6807 H   0  0  0  0  0  0  0  0  0  0  0  0
  1  2  1  0
  2  3  1  0
  2  4  2  0
  4  5  1  0
  5  6  3  0
  4  7  1  0
  7  8  2  0
  7  9  1  0
  9 10  1  0
 10 11  2  0
 11 12  1  0
 12 13  1  0
 12 14  2  0
 14 15  1  0
 15 16  2  0
 14 17  1  0
 17 18  2  0
 18 19  1  0
 19 20  2  0
 20 21  1  0
 21 22  2  0
 22 23  1  0
 16 10  1  0
 22 17  1  0
  1 24  1  0
  1 25  1  0
  1 26  1  0
  3 27  1  0
  9 28  1  0
 11 29  1  0
 15 30  1  0
 16 31  1  0
 18 32  1  0
 19 33  1  0
 20 34  1  0
 21 35  1  0
M  END
$$$$
