
     RDKit          3D

 69 73  0  0  0  0  0  0  0  0999 V2000
   -4.6270   -1.7428    4.3506 O   0  0  0  0  0  0  0  0  0  0  0  0
   -5.7945   -1.2694    3.2209 P   0  0  0  0  0  5  0  0  0  0  0  0
   -6.0143   -2.5085    2.0886 O   0  0  0  0  0  0  0  0  0  0  0  0
   -7.1007   -1.0002    3.9334 O   0  0  0  0  0  0  0  0  0  0  0  0
   -5.2407    0.2460    2.3787 C   0  0  0  0  0  0  0  0  0  0  0  0
   -5.0640    1.2459    3.3199 F   0  0  0  0  0  0  0  0  0  0  0  0
   -6.2246    0.6578    1.4959 F   0  0  0  0  0  0  0  0  0  0  0  0
   -3.9490   -0.0200    1.6437 C   0  0  0  0  0  0  0  0  0  0  0  0
   -2.7147    0.1213    2.2994 C   0  0  0  0  0  0  0  0  0  0  0  0
   -1.5210   -0.1487    1.6269 C   0  0  0  0  0  0  0  0  0  0  0  0
   -1.5339   -0.5580    0.2816 C   0  0  0  0  0  0  0  0  0  0  0  0
   -0.2283   -0.8047   -0.4448 C   0  0  0  0  0  0  0  0  0  0  0  0
    0.3763    0.4390   -1.1918 C   0  0  0  0  0  0  0  0  0  0  0  0
    1.7578    0.0576   -1.8432 C   0  0  0  0  0  0  0  0  0  0  0  0
    2.7749   -0.6543   -0.9698 C   0  0  0  0  0  0  0  0  0  0  0  0
    2.7097   -2.0472   -0.7940 C   0  0  0  0  0  0  0  0  0  0  0  0
    3.6645   -2.7120   -0.0205 C   0  0  0  0  0  0  0  0  0  0  0  0
    4.7156   -2.0004    0.5819 C   0  0  0  0  0  0  0  0  0  0  0  0
    4.8175   -0.6175    0.3537 C   0  0  0  0  0  0  0  0  0  0  0  0
    3.8618    0.0461   -0.4200 C   0  0  0  0  0  0  0  0  0  0  0  0
    5.7725   -2.7268    1.3798 C   0  0  0  0  0  0  0  0  0  0  0  0
    5.2201   -3.8170    2.0301 F   0  0  0  0  0  0  0  0  0  0  0  0
    6.3188   -1.8890    2.3371 F   0  0  0  0  0  0  0  0  0  0  0  0
    7.0990   -3.3052    0.2738 P   0  0  0  0  0  5  0  0  0  0  0  0
    6.4579   -4.3346   -0.9077 O   0  0  0  0  0  0  0  0  0  0  0  0
    7.8361   -1.9794   -0.4763 O   0  0  0  0  0  0  0  0  0  0  0  0
    8.1334   -4.0542    1.0828 O   0  0  0  0  0  0  0  0  0  0  0  0
    0.5481    1.5370   -0.2000 N   0  0  0  0  0  0  0  0  0  0  0  0
    1.6560    1.7240    0.5143 N   0  0  0  0  0  0  0  0  0  0  0  0
    1.5131    2.6928    1.4145 N   0  0  0  0  0  0  0  0  0  0  0  0
    0.2528    3.1291    1.2785 C   0  0  0  0  0  0  0  0  0  0  0  0
   -0.3601    2.4176    0.2913 C   0  0  0  0  0  0  0  0  0  0  0  0
   -1.7120    2.6199   -0.0186 C   0  0  0  0  0  0  0  0  0  0  0  0
   -2.4130    3.5948    0.7154 C   0  0  0  0  0  0  0  0  0  0  0  0
   -1.7638    4.3334    1.7301 C   0  0  0  0  0  0  0  0  0  0  0  0
   -0.4084    4.0992    2.0247 C   0  0  0  0  0  0  0  0  0  0  0  0
   -0.4747    0.9197   -2.3886 C   0  0  0  0  0  0  0  0  0  0  0  0
   -0.3618    2.2556   -2.8420 C   0  0  0  0  0  0  0  0  0  0  0  0
   -1.0643    2.6981   -3.9653 C   0  0  0  0  0  0  0  0  0  0  0  0
   -1.8462    1.8066   -4.6977 C   0  0  0  0  0  0  0  0  0  0  0  0
   -2.5216    2.2384   -5.7914 F   0  0  0  0  0  0  0  0  0  0  0  0
   -1.8982    0.4629   -4.3267 C   0  0  0  0  0  0  0  0  0  0  0  0
   -2.6092   -0.4189   -5.0723 F   0  0  0  0  0  0  0  0  0  0  0  0
   -1.1958    0.0165   -3.2031 C   0  0  0  0  0  0  0  0  0  0  0  0
   -2.7700   -0.7606   -0.3529 C   0  0  0  0  0  0  0  0  0  0  0  0
   -3.9649   -0.4920    0.3201 C   0  0  0  0  0  0  0  0  0  0  0  0
   -4.9481   -2.6138    4.6957 H   0  0  0  0  0  0  0  0  0  0  0  0
   -6.6950   -2.1604    1.4590 H   0  0  0  0  0  0  0  0  0  0  0  0
   -2.6730    0.4442    3.3320 H   0  0  0  0  0  0  0  0  0  0  0  0
   -0.5820   -0.0142    2.1497 H   0  0  0  0  0  0  0  0  0  0  0  0
   -0.3327   -1.6770   -1.1205 H   0  0  0  0  0  0  0  0  0  0  0  0
    0.4974   -1.1351    0.3272 H   0  0  0  0  0  0  0  0  0  0  0  0
    2.2227    0.9801   -2.2578 H   0  0  0  0  0  0  0  0  0  0  0  0
    1.5768   -0.5979   -2.7252 H   0  0  0  0  0  0  0  0  0  0  0  0
    1.9211   -2.6225   -1.2619 H   0  0  0  0  0  0  0  0  0  0  0  0
    3.5884   -3.7857    0.0971 H   0  0  0  0  0  0  0  0  0  0  0  0
    5.6453   -0.0515    0.7620 H   0  0  0  0  0  0  0  0  0  0  0  0
    3.9785    1.1077   -0.5984 H   0  0  0  0  0  0  0  0  0  0  0  0
    6.0446   -5.0783   -0.4006 H   0  0  0  0  0  0  0  0  0  0  0  0
    7.1936   -1.6924   -1.1731 H   0  0  0  0  0  0  0  0  0  0  0  0
   -2.2266    2.0457   -0.7739 H   0  0  0  0  0  0  0  0  0  0  0  0
   -3.4598    3.7732    0.5068 H   0  0  0  0  0  0  0  0  0  0  0  0
   -2.3153    5.0764    2.2912 H   0  0  0  0  0  0  0  0  0  0  0  0
    0.0966    4.6444    2.8115 H   0  0  0  0  0  0  0  0  0  0  0  0
    0.2736    2.9644   -2.3275 H   0  0  0  0  0  0  0  0  0  0  0  0
   -0.9879    3.7321   -4.2761 H   0  0  0  0  0  0  0  0  0  0  0  0
   -1.2035   -1.0424   -3.0016 H   0  0  0  0  0  0  0  0  0  0  0  0
   -2.8202   -1.1367   -1.3630 H   0  0  0  0  0  0  0  0  0  0  0  0
   -4.9035   -0.6583   -0.1934 H   0  0  0  0  0  0  0  0  0  0  0  0
  1  2  1  0
  2  3  1  0
  2  4  2  0
  2  5  1  0
  5  6  1  0
  5  7  1  0
  5  8  1  0
  8  9  2  0
  9 10  1  0
 10 11  2  0
 11 12  1  0
 12 13  1  0
 13 14  1  0
 14 15  1  0
 15 16  2  0
 16 17  1  0
 17 18  2  0
 18 19  1  0
 19 20  2  0
 18 21  1  0
 21 22  1  0
 21 23  1  0
 21 24  1  0
 24 25  1  0
 24 26  1  0
 24 27  2  0
 13 28  1  0
 28 29  1  0
 29 30  2  0
 30 31  1  0
 31 32  2  0
 32 33  1  0
 33 34  2  0
 34 35  1  0
 35 36  2  0
 13 37  1  0
 37 38  2  0
 38 39  1  0
 39 40  2  0
 40 41  1  0
 40 42  1  0
 42 43  1  0
 42 44  2  0
 11 45  1  0
 45 46  2  0
 46  8  1  0
 20 15  1  0
 32 28  1  0
 44 37  1  0
 36 31  1  0
  1 47  1  0
  3 48  1  0
  9 49  1  0
 10 50  1  0
 12 51  1  0
 12 52  1  0
 14 53  1  0
 14 54  1  0
 16 55  1  0
 17 56  1  0
 19 57  1  0
 20 58  1  0
 25 59  1  0
 26 60  1  0
 33 61  1  0
 34 62  1  0
 35 63  1  0
 36 64  1  0
 38 65  1  0
 39 66  1  0
 44 67  1  0
 45 68  1  0
 46 69  1  0
M  END
$$$$
