
     RDKit          3D

 52 54  0  0  0  0  0  0  0  0999 V2000
   -5.7374    2.6461   -0.0474 C   0  0  0  0  0  0  0  0  0  0  0  0
   -4.5607    1.7214   -0.2252 C   0  0  0  0  0  0  0  0  0  0  0  0
   -4.7598    0.3386   -0.1477 C   0  0  0  0  0  0  0  0  0  0  0  0
   -3.6949   -0.5522   -0.2995 C   0  0  0  0  0  0  0  0  0  0  0  0
   -2.3739   -0.0765   -0.5440 C   0  0  0  0  0  0  0  0  0  0  0  0
   -2.1867    1.3269   -0.6006 C   0  0  0  0  0  0  0  0  0  0  0  0
   -3.2584    2.2214   -0.4341 C   0  0  0  0  0  0  0  0  0  0  0  0
   -2.9997    3.7055   -0.5077 C   0  0  0  0  0  0  0  0  0  0  0  0
   -1.3311   -0.9805   -0.7090 N   0  0  0  0  0  0  0  0  0  0  0  0
    0.0661   -0.5617   -0.9800 C   0  0  0  0  0  0  0  0  0  0  0  0
    0.8858   -0.4771    0.3277 C   0  0  2  0  0  0  0  0  0  0  0  0
    0.2934    0.4387    1.2148 O   0  0  0  0  0  0  0  0  0  0  0  0
    2.3761   -0.1208    0.0538 C   0  0  2  0  0  0  0  0  0  0  0  0
    2.9286   -1.0196   -0.8782 O   0  0  0  0  0  0  0  0  0  0  0  0
    3.2279   -0.1088    1.3570 C   0  0  2  0  0  0  0  0  0  0  0  0
    2.7755    0.8704    2.2598 O   0  0  0  0  0  0  0  0  0  0  0  0
    4.7297    0.0870    1.0786 C   0  0  0  0  0  0  0  0  0  0  0  0
    4.9371    1.2863    0.3680 O   0  0  0  0  0  0  0  0  0  0  0  0
    6.6066    1.4507    0.0599 P   0  0  0  0  0  5  0  0  0  0  0  0
    7.1782    0.1176   -0.8136 O   0  0  0  0  0  0  0  0  0  0  0  0
    6.8625    2.8564   -0.8456 O   0  0  0  0  0  0  0  0  0  0  0  0
    7.3661    1.5620    1.3629 O   0  0  0  0  0  0  0  0  0  0  0  0
   -1.5891   -2.3254   -0.5910 C   0  0  0  0  0  0  0  0  0  0  0  0
   -0.6080   -3.2604   -0.7060 N   0  0  0  0  0  0  0  0  0  0  0  0
   -0.8738   -4.5886   -0.5901 C   0  0  0  0  0  0  0  0  0  0  0  0
    0.0653   -5.4198   -0.7031 O   0  0  0  0  0  0  0  0  0  0  0  0
   -2.1444   -5.0257   -0.3538 N   0  0  0  0  0  0  0  0  0  0  0  0
   -3.1855   -4.1579   -0.2231 C   0  0  0  0  0  0  0  0  0  0  0  0
   -4.3471   -4.5960   -0.0030 O   0  0  0  0  0  0  0  0  0  0  0  0
   -2.9576   -2.7872   -0.3319 C   0  0  0  0  0  0  0  0  0  0  0  0
   -3.9470   -1.8806   -0.2026 N   0  0  0  0  0  0  0  0  0  0  0  0
   -6.6980    2.0884   -0.0269 H   0  0  0  0  0  0  0  0  0  0  0  0
   -5.6364    3.1997    0.9094 H   0  0  0  0  0  0  0  0  0  0  0  0
   -5.7863    3.3689   -0.8884 H   0  0  0  0  0  0  0  0  0  0  0  0
   -5.7533   -0.0553    0.0342 H   0  0  0  0  0  0  0  0  0  0  0  0
   -1.2153    1.7608   -0.7582 H   0  0  0  0  0  0  0  0  0  0  0  0
   -3.4712    4.1217   -1.4224 H   0  0  0  0  0  0  0  0  0  0  0  0
   -3.4201    4.2115    0.3863 H   0  0  0  0  0  0  0  0  0  0  0  0
   -1.9135    3.9350   -0.5423 H   0  0  0  0  0  0  0  0  0  0  0  0
    0.1246    0.3813   -1.5551 H   0  0  0  0  0  0  0  0  0  0  0  0
    0.5452   -1.2923   -1.6675 H   0  0  0  0  0  0  0  0  0  0  0  0
    0.8571   -1.4767    0.8132 H   0  0  0  0  0  0  0  0  0  0  0  0
    0.4250    1.3479    0.8395 H   0  0  0  0  0  0  0  0  0  0  0  0
    2.4131    0.8927   -0.4028 H   0  0  0  0  0  0  0  0  0  0  0  0
    2.8894   -1.9275   -0.4772 H   0  0  0  0  0  0  0  0  0  0  0  0
    3.1139   -1.0972    1.8541 H   0  0  0  0  0  0  0  0  0  0  0  0
    2.8480    1.7526    1.8101 H   0  0  0  0  0  0  0  0  0  0  0  0
    5.1003   -0.7894    0.5002 H   0  0  0  0  0  0  0  0  0  0  0  0
    5.2592    0.1150    2.0582 H   0  0  0  0  0  0  0  0  0  0  0  0
    6.6039    0.0798   -1.6196 H   0  0  0  0  0  0  0  0  0  0  0  0
    6.2932    2.7456   -1.6484 H   0  0  0  0  0  0  0  0  0  0  0  0
   -2.3229   -6.0528   -0.2698 H   0  0  0  0  0  0  0  0  0  0  0  0
  1  2  1  0
  2  3  2  0
  3  4  1  0
  4  5  2  0
  5  6  1  0
  6  7  2  0
  7  8  1  0
  5  9  1  0
  9 10  1  0
 10 11  1  0
 11 12  1  0
 11 13  1  0
 13 14  1  0
 13 15  1  0
 15 16  1  0
 15 17  1  0
 17 18  1  0
 18 19  1  0
 19 20  1  0
 19 21  1  0
 19 22  2  0
  9 23  1  0
 23 24  2  0
 24 25  1  0
 25 26  2  0
 25 27  1  0
 27 28  1  0
 28 29  2  0
 28 30  1  0
 30 31  2  0
  7  2  1  0
 30 23  1  0
 31  4  1  0
  1 32  1  0
  1 33  1  0
  1 34  1  0
  3 35  1  0
  6 36  1  0
  8 37  1  0
  8 38  1  0
  8 39  1  0
 10 40  1  0
 10 41  1  0
 11 42  1  1
 12 43  1  0
 13 44  1  6
 14 45  1  0
 15 46  1  1
 16 47  1  0
 17 48  1  0
 17 49  1  0
 20 50  1  0
 21 51  1  0
 27 52  1  0
M  END
$$$$
