
     RDKit          3D

 48 52  0  0  0  0  0  0  0  0999 V2000
   -3.7998   -0.1486   -0.9574 C   0  0  1  0  0  0  0  0  0  0  0  0
   -2.5512    0.6277   -1.3535 C   0  0  0  0  0  0  0  0  0  0  0  0
   -1.6685    0.4307   -0.2086 N   0  0  0  0  0  0  0  0  0  0  0  0
   -2.3598   -0.1377    0.9456 C   0  0  0  0  0  0  0  0  0  0  0  0
   -3.8272   -0.0416    0.5607 C   0  0  2  0  0  0  0  0  0  0  0  0
   -4.6556   -1.0378    1.1255 O   0  0  0  0  0  0  0  0  0  0  0  0
   -5.8647   -1.2090    0.3738 C   0  0  0  0  0  0  0  0  0  0  0  0
   -6.2102   -0.0676   -0.6431 C   0  0  0  0  0  0  0  0  0  0  0  0
   -5.0737    0.3185   -1.5183 N   0  0  0  0  0  0  0  0  0  0  0  0
   -0.2822    0.8029   -0.1990 C   0  0  0  0  0  0  0  0  0  0  0  0
    0.0576    2.1553   -0.2430 C   0  0  0  0  0  0  0  0  0  0  0  0
   -0.9110    3.1055   -0.2623 F   0  0  0  0  0  0  0  0  0  0  0  0
    1.3896    2.5424   -0.2935 C   0  0  0  0  0  0  0  0  0  0  0  0
    2.4198    1.5872   -0.2420 C   0  0  0  0  0  0  0  0  0  0  0  0
    3.7637    1.9911   -0.3492 C   0  0  0  0  0  0  0  0  0  0  0  0
    4.0446    3.2147   -0.4840 O   0  0  0  0  0  0  0  0  0  0  0  0
    4.7889    1.0331   -0.3225 C   0  0  0  0  0  0  0  0  0  0  0  0
    4.4422   -0.3051   -0.1009 C   0  0  0  0  0  0  0  0  0  0  0  0
    3.1449   -0.6923    0.0983 N   0  0  0  0  0  0  0  0  0  0  0  0
    2.9391   -2.0875    0.5327 C   0  0  0  0  0  0  0  0  0  0  0  0
    3.7444   -2.4920    1.7691 C   0  0  0  0  0  0  0  0  0  0  0  0
    2.2582   -2.2361    1.8917 C   0  0  0  0  0  0  0  0  0  0  0  0
    2.1070    0.2060   -0.0965 C   0  0  0  0  0  0  0  0  0  0  0  0
    0.7288   -0.1810   -0.1689 C   0  0  0  0  0  0  0  0  0  0  0  0
    0.3165   -1.5503   -0.3918 C   0  0  0  0  0  0  0  0  0  0  0  0
   -0.0251   -2.6410   -0.5762 N   0  0  0  0  0  0  0  0  0  0  0  0
    6.2212    1.4040   -0.4921 C   0  0  0  0  0  0  0  0  0  0  0  0
    6.5933    2.7203   -0.7534 O   0  0  0  0  0  0  0  0  0  0  0  0
    7.1201    0.5237   -0.4055 O   0  0  0  0  0  0  0  0  0  0  0  0
   -3.6474   -1.2135   -1.2520 H   0  0  0  0  0  0  0  0  0  0  0  0
   -2.7610    1.7103   -1.4872 H   0  0  0  0  0  0  0  0  0  0  0  0
   -2.0982    0.2032   -2.2754 H   0  0  0  0  0  0  0  0  0  0  0  0
   -2.1514    0.4577    1.8609 H   0  0  0  0  0  0  0  0  0  0  0  0
   -2.0537   -1.1952    1.0939 H   0  0  0  0  0  0  0  0  0  0  0  0
   -4.1956    0.9652    0.8706 H   0  0  0  0  0  0  0  0  0  0  0  0
   -5.7945   -2.1676   -0.1839 H   0  0  0  0  0  0  0  0  0  0  0  0
   -6.7094   -1.3135    1.0867 H   0  0  0  0  0  0  0  0  0  0  0  0
   -6.5602    0.8179   -0.0655 H   0  0  0  0  0  0  0  0  0  0  0  0
   -7.0565   -0.3976   -1.2818 H   0  0  0  0  0  0  0  0  0  0  0  0
   -5.0623    1.3630   -1.5919 H   0  0  0  0  0  0  0  0  0  0  0  0
    1.6118    3.5999   -0.3713 H   0  0  0  0  0  0  0  0  0  0  0  0
    5.2321   -1.0462   -0.0408 H   0  0  0  0  0  0  0  0  0  0  0  0
    2.8066   -2.8785   -0.2358 H   0  0  0  0  0  0  0  0  0  0  0  0
    4.0133   -3.5682    1.8182 H   0  0  0  0  0  0  0  0  0  0  0  0
    4.3580   -1.7033    2.2548 H   0  0  0  0  0  0  0  0  0  0  0  0
    2.0042   -1.2858    2.4085 H   0  0  0  0  0  0  0  0  0  0  0  0
    1.6459   -3.1563    1.9970 H   0  0  0  0  0  0  0  0  0  0  0  0
    7.5673    2.9729   -0.8706 H   0  0  0  0  0  0  0  0  0  0  0  0
  1  2  1  0
  2  3  1  0
  3  4  1  0
  4  5  1  0
  5  6  1  0
  6  7  1  0
  7  8  1  0
  8  9  1  0
  3 10  1  0
 10 11  2  0
 11 12  1  0
 11 13  1  0
 13 14  2  0
 14 15  1  0
 15 16  2  0
 15 17  1  0
 17 18  2  0
 18 19  1  0
 19 20  1  0
 20 21  1  0
 21 22  1  0
 19 23  1  0
 23 24  2  0
 24 25  1  0
 25 26  3  0
 17 27  1  0
 27 28  1  0
 27 29  2  0
  5  1  1  0
 24 10  1  0
  9  1  1  0
 23 14  1  0
 22 20  1  0
  1 30  1  1
  2 31  1  0
  2 32  1  0
  4 33  1  0
  4 34  1  0
  5 35  1  6
  7 36  1  0
  7 37  1  0
  8 38  1  0
  8 39  1  0
  9 40  1  0
 13 41  1  0
 18 42  1  0
 20 43  1  0
 21 44  1  0
 21 45  1  0
 22 46  1  0
 22 47  1  0
 28 48  1  0
M  END
$$$$
