
     RDKit          3D

 43 46  0  0  0  0  0  0  0  0999 V2000
   -1.3728    1.1605   -2.1747 C   0  0  0  0  0  0  0  0  0  0  0  0
   -2.0429    0.6751   -0.9049 C   0  0  0  0  0  0  0  0  0  0  0  0
   -1.2859    0.0455    0.1151 C   0  0  0  0  0  0  0  0  0  0  0  0
   -1.9185   -0.4896    1.1899 N   0  0  0  0  0  0  0  0  0  0  0  0
   -3.2585   -0.4101    1.3685 C   0  0  0  0  0  0  0  0  0  0  0  0
   -3.8319   -0.9783    2.5120 C   0  0  0  0  0  0  0  0  0  0  0  0
   -5.2040   -0.8682    2.7384 C   0  0  0  0  0  0  0  0  0  0  0  0
   -6.0088   -0.1804    1.8296 C   0  0  0  0  0  0  0  0  0  0  0  0
   -7.3391   -0.0594    2.0630 F   0  0  0  0  0  0  0  0  0  0  0  0
   -5.4471    0.3895    0.6829 C   0  0  0  0  0  0  0  0  0  0  0  0
   -4.0629    0.2669    0.4238 C   0  0  0  0  0  0  0  0  0  0  0  0
   -3.4462    0.8154   -0.7298 C   0  0  0  0  0  0  0  0  0  0  0  0
   -4.2550    1.5153   -1.7554 C   0  0  0  0  0  0  0  0  0  0  0  0
   -5.3341    0.8711   -2.3537 O   0  0  0  0  0  0  0  0  0  0  0  0
   -3.9557    2.6890   -2.1038 O   0  0  0  0  0  0  0  0  0  0  0  0
    0.1883   -0.0648    0.0669 C   0  0  0  0  0  0  0  0  0  0  0  0
    0.9903    1.0787   -0.0718 C   0  0  0  0  0  0  0  0  0  0  0  0
    2.3833    0.9673   -0.0878 C   0  0  0  0  0  0  0  0  0  0  0  0
    3.0010   -0.2889    0.0484 C   0  0  0  0  0  0  0  0  0  0  0  0
    2.1935   -1.4293    0.2084 C   0  0  0  0  0  0  0  0  0  0  0  0
    0.8005   -1.3162    0.2254 C   0  0  0  0  0  0  0  0  0  0  0  0
    4.4814   -0.4089    0.0303 C   0  0  0  0  0  0  0  0  0  0  0  0
    5.1046   -1.4741   -0.6475 C   0  0  0  0  0  0  0  0  0  0  0  0
    6.4984   -1.5847   -0.6637 C   0  0  0  0  0  0  0  0  0  0  0  0
    7.2845   -0.6369   -0.0048 C   0  0  0  0  0  0  0  0  0  0  0  0
    6.6785    0.4240    0.6717 C   0  0  0  0  0  0  0  0  0  0  0  0
    5.2852    0.5402    0.6904 C   0  0  0  0  0  0  0  0  0  0  0  0
   -2.0307    1.0112   -3.0559 H   0  0  0  0  0  0  0  0  0  0  0  0
   -1.1279    2.2388   -2.0800 H   0  0  0  0  0  0  0  0  0  0  0  0
   -0.4459    0.5919   -2.3942 H   0  0  0  0  0  0  0  0  0  0  0  0
   -3.2123   -1.4989    3.2320 H   0  0  0  0  0  0  0  0  0  0  0  0
   -5.6415   -1.3071    3.6259 H   0  0  0  0  0  0  0  0  0  0  0  0
   -6.1030    0.9328    0.0177 H   0  0  0  0  0  0  0  0  0  0  0  0
   -5.8906    1.3370   -3.0603 H   0  0  0  0  0  0  0  0  0  0  0  0
    0.5378    2.0584   -0.1610 H   0  0  0  0  0  0  0  0  0  0  0  0
    2.9768    1.8632   -0.2193 H   0  0  0  0  0  0  0  0  0  0  0  0
    2.6394   -2.4071    0.3400 H   0  0  0  0  0  0  0  0  0  0  0  0
    0.1983   -2.2072    0.3554 H   0  0  0  0  0  0  0  0  0  0  0  0
    4.5156   -2.2108   -1.1792 H   0  0  0  0  0  0  0  0  0  0  0  0
    6.9693   -2.4044   -1.1907 H   0  0  0  0  0  0  0  0  0  0  0  0
    8.3632   -0.7247   -0.0183 H   0  0  0  0  0  0  0  0  0  0  0  0
    7.2887    1.1557    1.1853 H   0  0  0  0  0  0  0  0  0  0  0  0
    4.8366    1.3610    1.2356 H   0  0  0  0  0  0  0  0  0  0  0  0
  1  2  1  0
  2  3  2  0
  3  4  1  0
  4  5  2  0
  5  6  1  0
  6  7  2  0
  7  8  1  0
  8  9  1  0
  8 10  2  0
 10 11  1  0
 11 12  2  0
 12 13  1  0
 13 14  1  0
 13 15  2  0
  3 16  1  0
 16 17  2  0
 17 18  1  0
 18 19  2  0
 19 20  1  0
 20 21  2  0
 19 22  1  0
 22 23  2  0
 23 24  1  0
 24 25  2  0
 25 26  1  0
 26 27  2  0
 12  2  1  0
 21 16  1  0
 27 22  1  0
 11  5  1  0
  1 28  1  0
  1 29  1  0
  1 30  1  0
  6 31  1  0
  7 32  1  0
 10 33  1  0
 14 34  1  0
 17 35  1  0
 18 36  1  0
 20 37  1  0
 21 38  1  0
 23 39  1  0
 24 40  1  0
 25 41  1  0
 26 42  1  0
 27 43  1  0
M  END
$$$$
