
     RDKit          3D

 33 33  0  0  0  0  0  0  0  0999 V2000
   -2.9734    1.4108   -0.2833 C   0  0  0  0  0  0  0  0  0  0  0  0
   -1.5569    1.2357   -0.8383 C   0  0  0  0  0  0  0  0  0  0  0  0
   -0.9989   -0.1185   -0.6339 N   0  0  0  0  0  0  0  0  0  0  0  0
   -1.5787   -1.1429   -1.5202 C   0  0  0  0  0  0  0  0  0  0  0  0
   -0.7826   -0.5101    0.7869 C   0  0  1  0  0  0  0  0  0  0  0  0
   -1.8889   -1.4299    1.3483 C   0  0  0  0  0  0  0  0  0  0  0  0
    0.6107   -1.1774    0.9347 C   0  0  2  0  0  0  0  0  0  0  0  0
    0.8945   -1.5052    2.2740 O   0  0  0  0  0  0  0  0  0  0  0  0
    1.7156   -0.3083    0.3606 C   0  0  0  0  0  0  0  0  0  0  0  0
    2.0132    0.9493    0.9203 C   0  0  0  0  0  0  0  0  0  0  0  0
    3.0174    1.7497    0.3676 C   0  0  0  0  0  0  0  0  0  0  0  0
    3.7323    1.3073   -0.7477 C   0  0  0  0  0  0  0  0  0  0  0  0
    3.4429    0.0639   -1.3142 C   0  0  0  0  0  0  0  0  0  0  0  0
    2.4394   -0.7405   -0.7660 C   0  0  0  0  0  0  0  0  0  0  0  0
   -3.3455    2.4225   -0.5496 H   0  0  0  0  0  0  0  0  0  0  0  0
   -3.6693    0.6644   -0.7167 H   0  0  0  0  0  0  0  0  0  0  0  0
   -2.9754    1.3314    0.8230 H   0  0  0  0  0  0  0  0  0  0  0  0
   -1.5641    1.4777   -1.9236 H   0  0  0  0  0  0  0  0  0  0  0  0
   -0.8879    1.9837   -0.3596 H   0  0  0  0  0  0  0  0  0  0  0  0
   -1.5037   -0.8168   -2.5792 H   0  0  0  0  0  0  0  0  0  0  0  0
   -2.6453   -1.3326   -1.2805 H   0  0  0  0  0  0  0  0  0  0  0  0
   -1.0117   -2.0928   -1.4312 H   0  0  0  0  0  0  0  0  0  0  0  0
   -0.7798    0.4020    1.4256 H   0  0  0  0  0  0  0  0  0  0  0  0
   -1.7680   -1.5410    2.4466 H   0  0  0  0  0  0  0  0  0  0  0  0
   -2.8947   -1.0034    1.1632 H   0  0  0  0  0  0  0  0  0  0  0  0
   -1.8403   -2.4416    0.8928 H   0  0  0  0  0  0  0  0  0  0  0  0
    0.5832   -2.1371    0.3742 H   0  0  0  0  0  0  0  0  0  0  0  0
    0.7811   -0.6873    2.8242 H   0  0  0  0  0  0  0  0  0  0  0  0
    1.4659    1.3166    1.7784 H   0  0  0  0  0  0  0  0  0  0  0  0
    3.2396    2.7154    0.8031 H   0  0  0  0  0  0  0  0  0  0  0  0
    4.5086    1.9291   -1.1745 H   0  0  0  0  0  0  0  0  0  0  0  0
    3.9951   -0.2762   -2.1807 H   0  0  0  0  0  0  0  0  0  0  0  0
    2.2257   -1.6980   -1.2245 H   0  0  0  0  0  0  0  0  0  0  0  0
  1  2  1  0
  2  3  1  0
  3  4  1  0
  3  5  1  0
  5  6  1  0
  5  7  1  0
  7  8  1  0
  7  9  1  0
  9 10  2  0
 10 11  1  0
 11 12  2  0
 12 13  1  0
 13 14  2  0
 14  9  1  0
  1 15  1  0
  1 16  1  0
  1 17  1  0
  2 18  1  0
  2 19  1  0
  4 20  1  0
  4 21  1  0
  4 22  1  0
  5 23  1  1
  6 24  1  0
  6 25  1  0
  6 26  1  0
  7 27  1  6
  8 28  1  0
 10 29  1  0
 11 30  1  0
 12 31  1  0
 13 32  1  0
 14 33  1  0
M  END
$$$$
