
     RDKit          3D

 22 21  0  0  0  0  0  0  0  0999 V2000
   -0.7672   -0.5993    0.4151 C   0  0  2  0  0  0  0  0  0  0  0  0
   -1.0465   -1.6457   -0.5743 N   0  0  0  0  0  0  0  0  0  0  0  0
   -1.0030    0.8018   -0.1875 C   0  0  0  0  0  0  0  0  0  0  0  0
   -2.4818    1.0523   -0.4797 C   0  0  0  0  0  0  0  0  0  0  0  0
    0.6367   -0.7556    1.0609 C   0  0  0  0  0  0  0  0  0  0  0  0
    1.8353   -0.8146    0.0943 C   0  0  0  0  0  0  0  0  0  0  0  0
    2.1463    0.5109   -0.5291 C   0  0  0  0  0  0  0  0  0  0  0  0
    2.4212    1.6119    0.2763 O   0  0  0  0  0  0  0  0  0  0  0  0
    2.1815    0.6253   -1.7836 O   0  0  0  0  0  0  0  0  0  0  0  0
   -1.4966   -0.7243    1.2469 H   0  0  0  0  0  0  0  0  0  0  0  0
   -0.4593   -1.5001   -1.4267 H   0  0  0  0  0  0  0  0  0  0  0  0
   -0.8043   -2.5789   -0.1687 H   0  0  0  0  0  0  0  0  0  0  0  0
   -0.4379    0.9168   -1.1355 H   0  0  0  0  0  0  0  0  0  0  0  0
   -0.6518    1.5807    0.5238 H   0  0  0  0  0  0  0  0  0  0  0  0
   -2.6086    2.0702   -0.9052 H   0  0  0  0  0  0  0  0  0  0  0  0
   -3.0784    0.9836    0.4548 H   0  0  0  0  0  0  0  0  0  0  0  0
   -2.8638    0.3127   -1.2148 H   0  0  0  0  0  0  0  0  0  0  0  0
    0.7960    0.0574    1.8029 H   0  0  0  0  0  0  0  0  0  0  0  0
    0.6352   -1.7025    1.6443 H   0  0  0  0  0  0  0  0  0  0  0  0
    2.7311   -1.1273    0.6723 H   0  0  0  0  0  0  0  0  0  0  0  0
    1.6794   -1.5887   -0.6854 H   0  0  0  0  0  0  0  0  0  0  0  0
    2.6366    2.5134   -0.1323 H   0  0  0  0  0  0  0  0  0  0  0  0
  1  2  1  0
  1  3  1  0
  3  4  1  0
  1  5  1  0
  5  6  1  0
  6  7  1  0
  7  8  1  0
  7  9  2  0
  1 10  1  1
  2 11  1  0
  2 12  1  0
  3 13  1  0
  3 14  1  0
  4 15  1  0
  4 16  1  0
  4 17  1  0
  5 18  1  0
  5 19  1  0
  6 20  1  0
  6 21  1  0
  8 22  1  0
M  END
$$$$
