
     RDKit          3D

 40 40  0  0  0  0  0  0  0  0999 V2000
   -4.0236    1.1462    2.4345 O   0  0  0  0  0  0  0  0  0  0  0  0
   -4.1047    1.9692    1.3157 C   0  0  0  0  0  0  0  0  0  0  0  0
   -5.0819    1.8664    0.5270 O   0  0  0  0  0  0  0  0  0  0  0  0
   -3.0145    2.9517    1.0310 C   0  0  0  0  0  0  0  0  0  0  0  0
   -2.1725    2.4684   -0.0597 N   0  0  0  0  0  0  0  0  0  0  0  0
   -1.2525    1.3801    0.1033 C   0  0  0  0  0  0  0  0  0  0  0  0
   -1.1347    0.8066    1.2204 O   0  0  0  0  0  0  0  0  0  0  0  0
   -0.4544    0.8888   -1.0653 C   0  0  0  0  0  0  0  0  0  0  0  0
   -1.2960   -0.0568   -1.9324 C   0  0  0  0  0  0  0  0  0  0  0  0
   -0.5019   -0.6183   -3.1204 C   0  0  0  0  0  0  0  0  0  0  0  0
    0.5417   -1.5966   -2.6659 C   0  0  0  0  0  0  0  0  0  0  0  0
    0.2028   -2.7802   -2.3937 O   0  0  0  0  0  0  0  0  0  0  0  0
    1.9008   -1.1742   -2.4864 N   0  0  0  0  0  0  0  0  0  0  0  0
    2.8259   -1.8938   -1.6150 C   0  0  0  0  0  0  0  0  0  0  0  0
    2.5563   -1.5248   -0.1824 C   0  0  0  0  0  0  0  0  0  0  0  0
    1.6801   -2.2949    0.5962 C   0  0  0  0  0  0  0  0  0  0  0  0
    1.3522   -1.8960    1.8949 C   0  0  0  0  0  0  0  0  0  0  0  0
    1.8890   -0.7149    2.4360 C   0  0  0  0  0  0  0  0  0  0  0  0
    2.7650    0.0563    1.6505 C   0  0  0  0  0  0  0  0  0  0  0  0
    3.0916   -0.3435    0.3516 C   0  0  0  0  0  0  0  0  0  0  0  0
    1.5382   -0.2995    3.7686 N   0  0  0  0  0  4  0  0  0  0  0  0
    0.6726   -1.0509    4.5302 O   0  0  0  0  0  1  0  0  0  0  0  0
    2.0085    0.7509    4.2530 O   0  0  0  0  0  0  0  0  0  0  0  0
   -4.7479    0.4664    2.6328 H   0  0  0  0  0  0  0  0  0  0  0  0
   -2.3981    3.1214    1.9401 H   0  0  0  0  0  0  0  0  0  0  0  0
   -3.4709    3.9235    0.7436 H   0  0  0  0  0  0  0  0  0  0  0  0
   -2.2398    2.9414   -0.9892 H   0  0  0  0  0  0  0  0  0  0  0  0
   -0.1151    1.7564   -1.6714 H   0  0  0  0  0  0  0  0  0  0  0  0
    0.4460    0.3628   -0.6882 H   0  0  0  0  0  0  0  0  0  0  0  0
   -2.1716    0.5026   -2.3291 H   0  0  0  0  0  0  0  0  0  0  0  0
   -1.6835   -0.8961   -1.3125 H   0  0  0  0  0  0  0  0  0  0  0  0
   -1.2037   -1.1391   -3.8072 H   0  0  0  0  0  0  0  0  0  0  0  0
   -0.0331    0.2104   -3.6938 H   0  0  0  0  0  0  0  0  0  0  0  0
    2.1828   -0.2254   -2.8218 H   0  0  0  0  0  0  0  0  0  0  0  0
    3.8695   -1.6202   -1.8831 H   0  0  0  0  0  0  0  0  0  0  0  0
    2.7300   -2.9905   -1.7702 H   0  0  0  0  0  0  0  0  0  0  0  0
    1.2394   -3.1984    0.1938 H   0  0  0  0  0  0  0  0  0  0  0  0
    0.6706   -2.5073    2.4718 H   0  0  0  0  0  0  0  0  0  0  0  0
    3.1890    0.9745    2.0360 H   0  0  0  0  0  0  0  0  0  0  0  0
    3.7485    0.2775   -0.2449 H   0  0  0  0  0  0  0  0  0  0  0  0
  1  2  1  0
  2  3  2  0
  2  4  1  0
  4  5  1  0
  5  6  1  0
  6  7  2  0
  6  8  1  0
  8  9  1  0
  9 10  1  0
 10 11  1  0
 11 12  2  0
 11 13  1  0
 13 14  1  0
 14 15  1  0
 15 16  2  0
 16 17  1  0
 17 18  2  0
 18 19  1  0
 19 20  2  0
 18 21  1  0
 21 22  1  0
 21 23  2  0
 20 15  1  0
  1 24  1  0
  4 25  1  0
  4 26  1  0
  5 27  1  0
  8 28  1  0
  8 29  1  0
  9 30  1  0
  9 31  1  0
 10 32  1  0
 10 33  1  0
 13 34  1  0
 14 35  1  0
 14 36  1  0
 16 37  1  0
 17 38  1  0
 19 39  1  0
 20 40  1  0
M  CHG  2  21   1  22  -1
M  END
$$$$
