
     RDKit          3D

 17 18  0  0  0  0  0  0  0  0999 V2000
   -3.3462    1.5631   -0.7728 O   0  0  0  0  0  1  0  0  0  0  0  0
   -2.9079    0.3098   -0.4111 N   0  0  0  0  0  4  0  0  0  0  0  0
   -3.7528   -0.5798   -0.1797 O   0  0  0  0  0  0  0  0  0  0  0  0
   -1.5005    0.0314   -0.3021 C   0  0  0  0  0  0  0  0  0  0  0  0
   -1.0467   -1.2658    0.0722 C   0  0  0  0  0  0  0  0  0  0  0  0
    0.3286   -1.5468    0.1813 C   0  0  0  0  0  0  0  0  0  0  0  0
    1.2202   -0.5144   -0.0892 C   0  0  0  0  0  0  0  0  0  0  0  0
    2.5611   -0.5372   -0.0534 N   0  0  0  0  0  0  0  0  0  0  0  0
    3.0092    0.6698   -0.3827 N   0  0  0  0  0  0  0  0  0  0  0  0
    1.9437    1.4704   -0.6309 C   0  0  0  0  0  0  0  0  0  0  0  0
    0.7967    0.7295   -0.4479 C   0  0  0  0  0  0  0  0  0  0  0  0
   -0.5521    1.0494   -0.5673 C   0  0  0  0  0  0  0  0  0  0  0  0
   -1.7556   -2.0570    0.2790 H   0  0  0  0  0  0  0  0  0  0  0  0
    0.6784   -2.5308    0.4653 H   0  0  0  0  0  0  0  0  0  0  0  0
    3.1691   -1.3508    0.1884 H   0  0  0  0  0  0  0  0  0  0  0  0
    2.0074    2.5105   -0.9217 H   0  0  0  0  0  0  0  0  0  0  0  0
   -0.8526    2.0487   -0.8546 H   0  0  0  0  0  0  0  0  0  0  0  0
  1  2  1  0
  2  3  2  0
  2  4  1  0
  4  5  2  0
  5  6  1  0
  6  7  2  0
  7  8  1  0
  8  9  1  0
  9 10  2  0
 10 11  1  0
 11 12  2  0
 12  4  1  0
 11  7  1  0
  5 13  1  0
  6 14  1  0
  8 15  1  0
 10 16  1  0
 12 17  1  0
M  CHG  2   1  -1   2   1
M  END
$$$$
