
     RDKit          3D

 57 60  0  0  0  0  0  0  0  0999 V2000
   -3.5217    0.7324    0.7088 C   0  0  1  0  0  0  0  0  0  0  0  0
   -3.0791   -0.3993   -0.2560 C   0  0  0  0  0  0  0  0  0  0  0  0
   -1.5861   -0.4075   -0.4937 C   0  0  0  0  0  0  0  0  0  0  0  0
   -0.9371   -1.6193   -0.7725 C   0  0  0  0  0  0  0  0  0  0  0  0
    0.4390   -1.6571   -1.0563 C   0  0  0  0  0  0  0  0  0  0  0  0
    1.0841   -2.9890   -1.3368 C   0  0  0  0  0  0  0  0  0  0  0  0
    1.1841   -0.4530   -1.0405 C   0  0  0  0  0  0  0  0  0  0  0  0
    0.5213    0.7598   -0.8015 C   0  0  0  0  0  0  0  0  0  0  0  0
   -0.8503    0.7864   -0.5354 C   0  0  0  0  0  0  0  0  0  0  0  0
   -1.6424    2.3183   -0.2095 S   0  0  0  0  0  6  0  0  0  0  0  0
   -1.4762    3.2352   -1.3880 O   0  0  0  0  0  0  0  0  0  0  0  0
   -1.0358    2.9476    1.0136 O   0  0  0  0  0  0  0  0  0  0  0  0
   -3.3344    2.0389    0.0591 N   0  0  0  0  0  0  0  0  0  0  0  0
    2.9297   -0.4229   -1.3500 S   0  0  0  0  0  6  0  0  0  0  0  0
    3.5985   -1.5253   -0.5765 O   0  0  0  0  0  0  0  0  0  0  0  0
    3.1540   -0.6395   -2.8208 O   0  0  0  0  0  0  0  0  0  0  0  0
    3.5976    1.1248   -0.8660 N   0  0  0  0  0  0  0  0  0  0  0  0
    3.6495    1.2737    0.6072 C   0  0  0  0  0  0  0  0  0  0  0  0
    5.0502    1.0271    1.1982 C   0  0  0  0  0  0  0  0  0  0  0  0
    5.7570    0.0158    0.3993 N   0  0  0  0  0  0  0  0  0  0  0  0
    7.0037   -0.3917    1.0637 C   0  0  0  0  0  0  0  0  0  0  0  0
    6.0335    0.5132   -0.9655 C   0  0  0  0  0  0  0  0  0  0  0  0
    4.8923    1.3975   -1.5154 C   0  0  0  0  0  0  0  0  0  0  0  0
   -5.0016    0.5895    1.1825 C   0  0  0  0  0  0  0  0  0  0  0  0
   -6.0168    0.5137    0.0358 C   0  0  0  0  0  0  0  0  0  0  0  0
   -6.4291   -0.9439   -0.0661 C   0  0  0  0  0  0  0  0  0  0  0  0
   -6.2766   -1.5170    1.3333 C   0  0  0  0  0  0  0  0  0  0  0  0
   -5.2440   -0.6544    2.0547 C   0  0  0  0  0  0  0  0  0  0  0  0
   -2.8869    0.6859    1.6251 H   0  0  0  0  0  0  0  0  0  0  0  0
   -3.5799   -0.2784   -1.2397 H   0  0  0  0  0  0  0  0  0  0  0  0
   -3.3825   -1.3847    0.1543 H   0  0  0  0  0  0  0  0  0  0  0  0
   -1.5102   -2.5393   -0.7733 H   0  0  0  0  0  0  0  0  0  0  0  0
    1.6621   -3.3180   -0.4486 H   0  0  0  0  0  0  0  0  0  0  0  0
    1.7563   -2.9194   -2.2167 H   0  0  0  0  0  0  0  0  0  0  0  0
    0.3252   -3.7674   -1.5650 H   0  0  0  0  0  0  0  0  0  0  0  0
    1.0686    1.6928   -0.8199 H   0  0  0  0  0  0  0  0  0  0  0  0
   -3.6554    2.7928    0.7096 H   0  0  0  0  0  0  0  0  0  0  0  0
    2.9193    0.5953    1.1016 H   0  0  0  0  0  0  0  0  0  0  0  0
    3.3331    2.3061    0.8675 H   0  0  0  0  0  0  0  0  0  0  0  0
    4.9333    0.6821    2.2498 H   0  0  0  0  0  0  0  0  0  0  0  0
    5.6262    1.9812    1.2142 H   0  0  0  0  0  0  0  0  0  0  0  0
    7.6724    0.4810    1.2368 H   0  0  0  0  0  0  0  0  0  0  0  0
    7.5394   -1.1425    0.4435 H   0  0  0  0  0  0  0  0  0  0  0  0
    6.7746   -0.8713    2.0394 H   0  0  0  0  0  0  0  0  0  0  0  0
    6.9792    1.1017   -0.9995 H   0  0  0  0  0  0  0  0  0  0  0  0
    6.1598   -0.3626   -1.6383 H   0  0  0  0  0  0  0  0  0  0  0  0
    5.1513    2.4654   -1.3423 H   0  0  0  0  0  0  0  0  0  0  0  0
    4.8111    1.2796   -2.6171 H   0  0  0  0  0  0  0  0  0  0  0  0
   -5.2429    1.4849    1.7997 H   0  0  0  0  0  0  0  0  0  0  0  0
   -5.6188    0.8917   -0.9301 H   0  0  0  0  0  0  0  0  0  0  0  0
   -6.9116    1.1211    0.2980 H   0  0  0  0  0  0  0  0  0  0  0  0
   -5.7532   -1.4796   -0.7674 H   0  0  0  0  0  0  0  0  0  0  0  0
   -7.4746   -1.0420   -0.4311 H   0  0  0  0  0  0  0  0  0  0  0  0
   -5.9542   -2.5802    1.2923 H   0  0  0  0  0  0  0  0  0  0  0  0
   -7.2517   -1.4575    1.8656 H   0  0  0  0  0  0  0  0  0  0  0  0
   -4.3134   -1.2341    2.2359 H   0  0  0  0  0  0  0  0  0  0  0  0
   -5.6399   -0.3532    3.0499 H   0  0  0  0  0  0  0  0  0  0  0  0
  1  2  1  0
  2  3  1  0
  3  4  2  0
  4  5  1  0
  5  6  1  0
  5  7  2  0
  7  8  1  0
  8  9  2  0
  9 10  1  0
 10 11  2  0
 10 12  2  0
 10 13  1  0
  7 14  1  0
 14 15  2  0
 14 16  2  0
 14 17  1  0
 17 18  1  0
 18 19  1  0
 19 20  1  0
 20 21  1  0
 20 22  1  0
 22 23  1  0
  1 24  1  0
 24 25  1  0
 25 26  1  0
 26 27  1  0
 27 28  1  0
 13  1  1  0
 23 17  1  0
 28 24  1  0
  9  3  1  0
  1 29  1  1
  2 30  1  0
  2 31  1  0
  4 32  1  0
  6 33  1  0
  6 34  1  0
  6 35  1  0
  8 36  1  0
 13 37  1  0
 18 38  1  0
 18 39  1  0
 19 40  1  0
 19 41  1  0
 21 42  1  0
 21 43  1  0
 21 44  1  0
 22 45  1  0
 22 46  1  0
 23 47  1  0
 23 48  1  0
 24 49  1  0
 25 50  1  0
 25 51  1  0
 26 52  1  0
 26 53  1  0
 27 54  1  0
 27 55  1  0
 28 56  1  0
 28 57  1  0
M  END
$$$$
