
     RDKit          3D

 57 61  0  0  0  0  0  0  0  0999 V2000
   -2.0046    0.0364   -2.3070 C   0  0  1  0  0  0  0  0  0  0  0  0
   -0.6008    0.6548   -2.4110 C   0  0  0  0  0  0  0  0  0  0  0  0
    0.2392    0.2968   -1.1793 C   0  0  0  0  0  0  0  0  0  0  0  0
    0.4107   -1.1681   -0.9865 N   0  0  0  0  0  0  0  0  0  0  0  0
    0.4602   -1.5456    0.4447 C   0  0  0  0  0  0  0  0  0  0  0  0
    1.7803   -1.1066    1.0945 C   0  0  0  0  0  0  0  0  0  0  0  0
    2.9903   -1.7988    0.4526 C   0  0  0  0  0  0  0  0  0  0  0  0
    4.2641   -1.4045    1.1525 C   0  0  0  0  0  0  0  0  0  0  0  0
    4.6917   -2.1620    2.0661 O   0  0  0  0  0  0  0  0  0  0  0  0
    5.0071   -0.1514    0.8352 C   0  0  0  0  0  0  0  0  0  0  0  0
    4.5260    0.7804   -0.1083 C   0  0  0  0  0  0  0  0  0  0  0  0
    5.2423    1.9493   -0.3832 C   0  0  0  0  0  0  0  0  0  0  0  0
    6.4457    2.2069    0.2755 C   0  0  0  0  0  0  0  0  0  0  0  0
    7.1375    3.3414    0.0063 F   0  0  0  0  0  0  0  0  0  0  0  0
    6.9354    1.2954    1.2121 C   0  0  0  0  0  0  0  0  0  0  0  0
    6.2234    0.1252    1.4919 C   0  0  0  0  0  0  0  0  0  0  0  0
   -0.5109   -2.0245   -1.7764 C   0  0  0  0  0  0  0  0  0  0  0  0
   -1.9502   -1.4732   -1.8741 C   0  0  1  0  0  0  0  0  0  0  0  0
   -2.6634   -1.4839   -0.5547 C   0  0  0  0  0  0  0  0  0  0  0  0
   -2.8811   -2.5307    0.3461 C   0  0  0  0  0  0  0  0  0  0  0  0
   -3.5502   -2.2457    1.5534 C   0  0  0  0  0  0  0  0  0  0  0  0
   -3.9946   -0.9335    1.8342 C   0  0  0  0  0  0  0  0  0  0  0  0
   -3.7809    0.0947    0.8905 C   0  0  0  0  0  0  0  0  0  0  0  0
   -3.1219   -0.2358   -0.2789 C   0  0  0  0  0  0  0  0  0  0  0  0
   -2.8076    0.7001   -1.2726 N   0  0  0  0  0  0  0  0  0  0  0  0
   -3.0135    2.1323   -1.0509 C   0  0  0  0  0  0  0  0  0  0  0  0
   -4.2238    2.3599   -0.1140 C   0  0  0  0  0  0  0  0  0  0  0  0
   -4.1858    1.4698    1.0691 N   0  0  0  0  0  0  0  0  0  0  0  0
   -4.5890    1.9713    2.3851 C   0  0  0  0  0  0  0  0  0  0  0  0
   -2.5207    0.1371   -3.2867 H   0  0  0  0  0  0  0  0  0  0  0  0
   -0.0943    0.2770   -3.3257 H   0  0  0  0  0  0  0  0  0  0  0  0
   -0.6713    1.7588   -2.5118 H   0  0  0  0  0  0  0  0  0  0  0  0
    1.2425    0.7543   -1.3037 H   0  0  0  0  0  0  0  0  0  0  0  0
   -0.2265    0.7770   -0.2896 H   0  0  0  0  0  0  0  0  0  0  0  0
    0.3777   -2.6477    0.5717 H   0  0  0  0  0  0  0  0  0  0  0  0
   -0.3884   -1.0940    1.0037 H   0  0  0  0  0  0  0  0  0  0  0  0
    1.8868   -0.0031    1.0286 H   0  0  0  0  0  0  0  0  0  0  0  0
    1.7420   -1.3717    2.1740 H   0  0  0  0  0  0  0  0  0  0  0  0
    3.0553   -1.5646   -0.6304 H   0  0  0  0  0  0  0  0  0  0  0  0
    2.8624   -2.9009    0.5316 H   0  0  0  0  0  0  0  0  0  0  0  0
    3.5978    0.6215   -0.6356 H   0  0  0  0  0  0  0  0  0  0  0  0
    4.8612    2.6567   -1.1085 H   0  0  0  0  0  0  0  0  0  0  0  0
    7.8684    1.4943    1.7237 H   0  0  0  0  0  0  0  0  0  0  0  0
    6.6285   -0.5636    2.2226 H   0  0  0  0  0  0  0  0  0  0  0  0
   -0.1043   -2.1062   -2.8073 H   0  0  0  0  0  0  0  0  0  0  0  0
   -0.5312   -3.0693   -1.3970 H   0  0  0  0  0  0  0  0  0  0  0  0
   -2.5301   -2.0911   -2.5942 H   0  0  0  0  0  0  0  0  0  0  0  0
   -2.5287   -3.5310    0.1321 H   0  0  0  0  0  0  0  0  0  0  0  0
   -3.7195   -3.0361    2.2728 H   0  0  0  0  0  0  0  0  0  0  0  0
   -4.5011   -0.7371    2.7691 H   0  0  0  0  0  0  0  0  0  0  0  0
   -3.1904    2.6408   -2.0224 H   0  0  0  0  0  0  0  0  0  0  0  0
   -2.1039    2.5633   -0.5808 H   0  0  0  0  0  0  0  0  0  0  0  0
   -5.1553    2.1501   -0.6826 H   0  0  0  0  0  0  0  0  0  0  0  0
   -4.2455    3.4288    0.1889 H   0  0  0  0  0  0  0  0  0  0  0  0
   -5.5047    1.4437    2.7245 H   0  0  0  0  0  0  0  0  0  0  0  0
   -3.7704    1.8040    3.1165 H   0  0  0  0  0  0  0  0  0  0  0  0
   -4.8120    3.0584    2.3543 H   0  0  0  0  0  0  0  0  0  0  0  0
  1  2  1  0
  2  3  1  0
  3  4  1  0
  4  5  1  0
  5  6  1  0
  6  7  1  0
  7  8  1  0
  8  9  2  0
  8 10  1  0
 10 11  2  0
 11 12  1  0
 12 13  2  0
 13 14  1  0
 13 15  1  0
 15 16  2  0
  4 17  1  0
 17 18  1  0
 18 19  1  0
 19 20  2  0
 20 21  1  0
 21 22  2  0
 22 23  1  0
 23 24  2  0
 24 25  1  0
 25 26  1  0
 26 27  1  0
 27 28  1  0
 28 29  1  0
 18  1  1  0
 24 19  1  0
 25  1  1  0
 16 10  1  0
 28 23  1  0
  1 30  1  6
  2 31  1  0
  2 32  1  0
  3 33  1  0
  3 34  1  0
  5 35  1  0
  5 36  1  0
  6 37  1  0
  6 38  1  0
  7 39  1  0
  7 40  1  0
 11 41  1  0
 12 42  1  0
 15 43  1  0
 16 44  1  0
 17 45  1  0
 17 46  1  0
 18 47  1  6
 20 48  1  0
 21 49  1  0
 22 50  1  0
 26 51  1  0
 26 52  1  0
 27 53  1  0
 27 54  1  0
 29 55  1  0
 29 56  1  0
 29 57  1  0
M  END
$$$$
