
     RDKit          3D

 49 51  0  0  0  0  0  0  0  0999 V2000
   -1.0802   -0.4461    0.2662 C   0  0  2  0  0  0  0  0  0  0  0  0
   -0.6023    0.7417    0.8492 O   0  0  0  0  0  0  0  0  0  0  0  0
   -0.6149   -0.5325   -1.1945 C   0  0  0  0  0  0  0  0  0  0  0  0
    0.8285   -0.7604   -1.2659 N   0  0  0  0  0  0  0  0  0  0  0  0
    1.7862    0.3006   -1.1225 C   0  0  0  0  0  0  0  0  0  0  0  0
    1.3956    1.4995   -1.0954 O   0  0  0  0  0  0  0  0  0  0  0  0
    3.2307    0.0139   -1.0197 C   0  0  0  0  0  0  0  0  0  0  0  0
    4.2327    0.9844   -1.0260 C   0  0  0  0  0  0  0  0  0  0  0  0
    5.4106    0.2836   -0.8929 C   0  0  0  0  0  0  0  0  0  0  0  0
    6.7292    0.7297   -0.8351 C   0  0  0  0  0  0  0  0  0  0  0  0
    7.7431   -0.2361   -0.6861 C   0  0  0  0  0  0  0  0  0  0  0  0
    9.4213    0.2668   -0.6075 Cl  0  0  0  0  0  0  0  0  0  0  0  0
    7.4142   -1.6087   -0.5984 C   0  0  0  0  0  0  0  0  0  0  0  0
    6.0717   -2.0257   -0.6592 C   0  0  0  0  0  0  0  0  0  0  0  0
    5.0914   -1.0458   -0.8091 C   0  0  0  0  0  0  0  0  0  0  0  0
    3.7624   -1.2267   -0.8837 N   0  0  0  0  0  0  0  0  0  0  0  0
   -2.5702   -0.5446    0.3300 N   0  0  0  0  0  0  0  0  0  0  0  0
   -3.0237   -1.6568    1.2085 C   0  0  0  0  0  0  0  0  0  0  0  0
   -2.7112   -1.4643    2.7071 C   0  0  0  0  0  0  0  0  0  0  0  0
   -3.5351   -0.4890    3.2842 O   0  0  0  0  0  0  0  0  0  0  0  0
   -3.3049    0.7417    0.5151 C   0  0  0  0  0  0  0  0  0  0  0  0
   -3.0378    1.7330   -0.6188 C   0  0  0  0  0  0  0  0  0  0  0  0
   -4.2221    2.6874   -0.6180 C   0  0  0  0  0  0  0  0  0  0  0  0
   -5.3816    1.9286    0.0172 C   0  0  0  0  0  0  0  0  0  0  0  0
   -4.8277    0.5779    0.4541 C   0  0  0  0  0  0  0  0  0  0  0  0
   -0.6001   -1.3137    0.7809 H   0  0  0  0  0  0  0  0  0  0  0  0
   -0.6125    0.6095    1.8316 H   0  0  0  0  0  0  0  0  0  0  0  0
   -0.8759    0.3840   -1.7614 H   0  0  0  0  0  0  0  0  0  0  0  0
   -1.1346   -1.3857   -1.6831 H   0  0  0  0  0  0  0  0  0  0  0  0
    1.1546   -1.7232   -1.5019 H   0  0  0  0  0  0  0  0  0  0  0  0
    4.1146    2.0568   -1.1141 H   0  0  0  0  0  0  0  0  0  0  0  0
    6.9641    1.7845   -0.9016 H   0  0  0  0  0  0  0  0  0  0  0  0
    8.1973   -2.3470   -0.4829 H   0  0  0  0  0  0  0  0  0  0  0  0
    5.8102   -3.0737   -0.5916 H   0  0  0  0  0  0  0  0  0  0  0  0
    3.2601   -2.1398   -0.8267 H   0  0  0  0  0  0  0  0  0  0  0  0
   -4.1083   -1.8488    1.0776 H   0  0  0  0  0  0  0  0  0  0  0  0
   -2.5357   -2.5980    0.8719 H   0  0  0  0  0  0  0  0  0  0  0  0
   -1.6527   -1.1819    2.8644 H   0  0  0  0  0  0  0  0  0  0  0  0
   -2.8558   -2.4361    3.2324 H   0  0  0  0  0  0  0  0  0  0  0  0
   -4.4170   -0.9174    3.4405 H   0  0  0  0  0  0  0  0  0  0  0  0
   -3.0296    1.2180    1.4826 H   0  0  0  0  0  0  0  0  0  0  0  0
   -2.0873    2.2901   -0.4792 H   0  0  0  0  0  0  0  0  0  0  0  0
   -3.0195    1.1967   -1.5930 H   0  0  0  0  0  0  0  0  0  0  0  0
   -4.4705    3.0095   -1.6529 H   0  0  0  0  0  0  0  0  0  0  0  0
   -3.9799    3.5862   -0.0088 H   0  0  0  0  0  0  0  0  0  0  0  0
   -6.2128    1.7928   -0.7090 H   0  0  0  0  0  0  0  0  0  0  0  0
   -5.7635    2.4881    0.8995 H   0  0  0  0  0  0  0  0  0  0  0  0
   -5.2535    0.2825    1.4357 H   0  0  0  0  0  0  0  0  0  0  0  0
   -5.0979   -0.1855   -0.3098 H   0  0  0  0  0  0  0  0  0  0  0  0
  1  2  1  0
  1  3  1  0
  3  4  1  0
  4  5  1  0
  5  6  2  0
  5  7  1  0
  7  8  2  0
  8  9  1  0
  9 10  2  0
 10 11  1  0
 11 12  1  0
 11 13  2  0
 13 14  1  0
 14 15  2  0
 15 16  1  0
  1 17  1  0
 17 18  1  0
 18 19  1  0
 19 20  1  0
 17 21  1  0
 21 22  1  0
 22 23  1  0
 23 24  1  0
 24 25  1  0
 16  7  1  0
 25 21  1  0
 15  9  1  0
  1 26  1  1
  2 27  1  0
  3 28  1  0
  3 29  1  0
  4 30  1  0
  8 31  1  0
 10 32  1  0
 13 33  1  0
 14 34  1  0
 16 35  1  0
 18 36  1  0
 18 37  1  0
 19 38  1  0
 19 39  1  0
 20 40  1  0
 21 41  1  0
 22 42  1  0
 22 43  1  0
 23 44  1  0
 23 45  1  0
 24 46  1  0
 24 47  1  0
 25 48  1  0
 25 49  1  0
M  END
$$$$
