
     RDKit          3D

 38 39  0  0  0  0  0  0  0  0999 V2000
   -5.5511   -1.3334   -3.6673 O   0  0  0  0  0  0  0  0  0  0  0  0
   -5.2856   -1.3101   -2.2913 C   0  0  0  0  0  0  0  0  0  0  0  0
   -3.8608   -1.7819   -2.0180 C   0  0  0  0  0  0  0  0  0  0  0  0
   -3.6311   -1.7835   -0.6298 O   0  0  0  0  0  0  0  0  0  0  0  0
   -2.3533   -2.2110   -0.4496 N   0  0  0  0  0  0  0  0  0  0  0  0
   -1.2888   -1.2696   -0.2636 C   0  0  0  0  0  0  0  0  0  0  0  0
   -1.5568   -0.0388   -0.2081 O   0  0  0  0  0  0  0  0  0  0  0  0
    0.1179   -1.7267   -0.1547 C   0  0  0  0  0  0  0  0  0  0  0  0
    0.5420   -2.8333   -0.9125 C   0  0  0  0  0  0  0  0  0  0  0  0
    1.8688   -3.2634   -0.8628 C   0  0  0  0  0  0  0  0  0  0  0  0
    2.7907   -2.5998   -0.0543 C   0  0  0  0  0  0  0  0  0  0  0  0
    4.0750   -3.0318   -0.0010 F   0  0  0  0  0  0  0  0  0  0  0  0
    2.3901   -1.4997    0.7074 C   0  0  0  0  0  0  0  0  0  0  0  0
    3.2913   -0.8965    1.5236 F   0  0  0  0  0  0  0  0  0  0  0  0
    1.0585   -1.0449    0.6563 C   0  0  0  0  0  0  0  0  0  0  0  0
    0.6461    0.0484    1.4941 N   0  0  0  0  0  0  0  0  0  0  0  0
    1.3173    1.3214    1.5353 C   0  0  0  0  0  0  0  0  0  0  0  0
    2.1256    1.7535    0.4666 C   0  0  0  0  0  0  0  0  0  0  0  0
    2.7548    3.0007    0.5142 C   0  0  0  0  0  0  0  0  0  0  0  0
    2.5776    3.8351    1.6235 C   0  0  0  0  0  0  0  0  0  0  0  0
    1.7638    3.4195    2.6837 C   0  0  0  0  0  0  0  0  0  0  0  0
    1.1323    2.1722    2.6391 C   0  0  0  0  0  0  0  0  0  0  0  0
    0.3502    1.7879    3.6793 F   0  0  0  0  0  0  0  0  0  0  0  0
    3.2256    5.1197    1.6713 C   0  0  0  0  0  0  0  0  0  0  0  0
    3.7683    6.1955    1.7113 C   0  0  0  0  0  0  0  0  0  0  0  0
   -5.1016   -0.5384   -4.0570 H   0  0  0  0  0  0  0  0  0  0  0  0
   -5.4339   -0.2839   -1.8836 H   0  0  0  0  0  0  0  0  0  0  0  0
   -6.0005   -1.9896   -1.7804 H   0  0  0  0  0  0  0  0  0  0  0  0
   -3.1507   -1.0914   -2.5284 H   0  0  0  0  0  0  0  0  0  0  0  0
   -3.7384   -2.8092   -2.4316 H   0  0  0  0  0  0  0  0  0  0  0  0
   -2.1739   -3.2350   -0.3440 H   0  0  0  0  0  0  0  0  0  0  0  0
   -0.1470   -3.3535   -1.5659 H   0  0  0  0  0  0  0  0  0  0  0  0
    2.1823   -4.1136   -1.4549 H   0  0  0  0  0  0  0  0  0  0  0  0
   -0.2026   -0.0901    2.0881 H   0  0  0  0  0  0  0  0  0  0  0  0
    2.2610    1.1342   -0.4104 H   0  0  0  0  0  0  0  0  0  0  0  0
    3.3752    3.3162   -0.3162 H   0  0  0  0  0  0  0  0  0  0  0  0
    1.6173    4.0609    3.5448 H   0  0  0  0  0  0  0  0  0  0  0  0
    4.2447    7.1399    1.7465 H   0  0  0  0  0  0  0  0  0  0  0  0
  1  2  1  0
  2  3  1  0
  3  4  1  0
  4  5  1  0
  5  6  1  0
  6  7  2  0
  6  8  1  0
  8  9  2  0
  9 10  1  0
 10 11  2  0
 11 12  1  0
 11 13  1  0
 13 14  1  0
 13 15  2  0
 15 16  1  0
 16 17  1  0
 17 18  2  0
 18 19  1  0
 19 20  2  0
 20 21  1  0
 21 22  2  0
 22 23  1  0
 20 24  1  0
 24 25  3  0
 15  8  1  0
 22 17  1  0
  1 26  1  0
  2 27  1  0
  2 28  1  0
  3 29  1  0
  3 30  1  0
  5 31  1  0
  9 32  1  0
 10 33  1  0
 16 34  1  0
 18 35  1  0
 19 36  1  0
 21 37  1  0
 25 38  1  0
M  END
$$$$
