
     RDKit          3D

 37 39  0  0  0  0  0  0  0  0999 V2000
    5.3960    0.7986    0.0671 O   0  0  0  0  0  0  0  0  0  0  0  0
    4.4262   -0.0702    0.5573 C   0  0  0  0  0  0  0  0  0  0  0  0
    3.7360    0.2565    1.5597 O   0  0  0  0  0  0  0  0  0  0  0  0
    4.1759   -1.3754   -0.1345 C   0  0  0  0  0  0  0  0  0  0  0  0
    3.2905   -1.1953   -1.3713 C   0  0  0  0  0  0  0  0  0  0  0  0
    1.9048   -0.7732   -0.9936 C   0  0  0  0  0  0  0  0  0  0  0  0
    1.4756    0.5049   -1.0472 N   0  0  0  0  0  0  0  0  0  0  0  0
    0.2092    0.4310   -0.5917 C   0  0  0  0  0  0  0  0  0  0  0  0
   -0.0828   -0.8941   -0.2922 C   0  0  0  0  0  0  0  0  0  0  0  0
    0.9921   -1.6013   -0.5398 O   0  0  0  0  0  0  0  0  0  0  0  0
   -1.3502   -1.4845    0.1837 C   0  0  0  0  0  0  0  0  0  0  0  0
   -1.3169   -2.5780    1.0642 C   0  0  0  0  0  0  0  0  0  0  0  0
   -2.5069   -3.1625    1.5089 C   0  0  0  0  0  0  0  0  0  0  0  0
   -3.7373   -2.6703    1.0663 C   0  0  0  0  0  0  0  0  0  0  0  0
   -3.7795   -1.5982    0.1713 C   0  0  0  0  0  0  0  0  0  0  0  0
   -2.5920   -1.0114   -0.2763 C   0  0  0  0  0  0  0  0  0  0  0  0
   -0.6321    1.6264   -0.3764 C   0  0  0  0  0  0  0  0  0  0  0  0
   -0.5962    2.6795   -1.3052 C   0  0  0  0  0  0  0  0  0  0  0  0
   -1.3716    3.8256   -1.1031 C   0  0  0  0  0  0  0  0  0  0  0  0
   -2.1764    3.9355    0.0337 C   0  0  0  0  0  0  0  0  0  0  0  0
   -2.2008    2.9029    0.9746 C   0  0  0  0  0  0  0  0  0  0  0  0
   -1.4266    1.7557    0.7767 C   0  0  0  0  0  0  0  0  0  0  0  0
    5.5665    1.6916    0.5138 H   0  0  0  0  0  0  0  0  0  0  0  0
    5.1517   -1.8031   -0.4497 H   0  0  0  0  0  0  0  0  0  0  0  0
    3.7052   -2.0969    0.5693 H   0  0  0  0  0  0  0  0  0  0  0  0
    3.2306   -2.1613   -1.9166 H   0  0  0  0  0  0  0  0  0  0  0  0
    3.7410   -0.4460   -2.0586 H   0  0  0  0  0  0  0  0  0  0  0  0
   -0.3707   -2.9707    1.4161 H   0  0  0  0  0  0  0  0  0  0  0  0
   -2.4748   -3.9983    2.1959 H   0  0  0  0  0  0  0  0  0  0  0  0
   -4.6575   -3.1245    1.4105 H   0  0  0  0  0  0  0  0  0  0  0  0
   -4.7326   -1.2267   -0.1823 H   0  0  0  0  0  0  0  0  0  0  0  0
   -2.6445   -0.2014   -0.9923 H   0  0  0  0  0  0  0  0  0  0  0  0
    0.0223    2.6090   -2.1916 H   0  0  0  0  0  0  0  0  0  0  0  0
   -1.3474    4.6293   -1.8277 H   0  0  0  0  0  0  0  0  0  0  0  0
   -2.7751    4.8236    0.1892 H   0  0  0  0  0  0  0  0  0  0  0  0
   -2.8143    2.9945    1.8616 H   0  0  0  0  0  0  0  0  0  0  0  0
   -1.4375    0.9785    1.5301 H   0  0  0  0  0  0  0  0  0  0  0  0
  1  2  1  0
  2  3  2  0
  2  4  1  0
  4  5  1  0
  5  6  1  0
  6  7  2  0
  7  8  1  0
  8  9  2  0
  9 10  1  0
  9 11  1  0
 11 12  2  0
 12 13  1  0
 13 14  2  0
 14 15  1  0
 15 16  2  0
  8 17  1  0
 17 18  2  0
 18 19  1  0
 19 20  2  0
 20 21  1  0
 21 22  2  0
 10  6  1  0
 16 11  1  0
 22 17  1  0
  1 23  1  0
  4 24  1  0
  4 25  1  0
  5 26  1  0
  5 27  1  0
 12 28  1  0
 13 29  1  0
 14 30  1  0
 15 31  1  0
 16 32  1  0
 18 33  1  0
 19 34  1  0
 20 35  1  0
 21 36  1  0
 22 37  1  0
M  END
$$$$
