
     RDKit          3D

 47 50  0  0  0  0  0  0  0  0999 V2000
    1.6011   -0.5791   -0.0517 C   0  0  2  0  0  0  0  0  0  0  0  0
    2.5695   -1.6457    0.4446 C   0  0  0  0  0  0  0  0  0  0  0  0
    3.9380   -0.9411    0.4344 C   0  0  0  0  0  0  0  0  0  0  0  0
    3.6641    0.5536    0.1525 C   0  0  2  0  0  0  0  0  0  0  0  0
    4.4914    1.3869    0.9235 O   0  0  0  0  0  0  0  0  0  0  0  0
    2.1706    0.7392    0.4858 C   0  0  2  0  0  0  0  0  0  0  0  0
    1.9965    0.9258    2.0285 C   0  0  0  0  0  0  0  0  0  0  0  0
    1.4827    1.8945   -0.2711 C   0  0  0  0  0  0  0  0  0  0  0  0
   -0.0553    1.8369   -0.1047 C   0  0  0  0  0  0  0  0  0  0  0  0
   -0.6684    0.4435   -0.4699 C   0  0  1  0  0  0  0  0  0  0  0  0
    0.0935   -0.7352    0.2358 C   0  0  1  0  0  0  0  0  0  0  0  0
   -0.4236   -2.0926   -0.2782 C   0  0  0  0  0  0  0  0  0  0  0  0
   -1.9220   -2.2405   -0.0229 C   0  0  0  0  0  0  0  0  0  0  0  0
   -2.6661   -1.0818   -0.6398 C   0  0  0  0  0  0  0  0  0  0  0  0
   -3.7048   -1.3305   -1.4541 C   0  0  0  0  0  0  0  0  0  0  0  0
   -4.4109   -0.2405   -2.1251 C   0  0  0  0  0  0  0  0  0  0  0  0
   -5.4015   -0.4854   -2.8627 O   0  0  0  0  0  0  0  0  0  0  0  0
   -3.9438    1.1320   -1.9535 C   0  0  0  0  0  0  0  0  0  0  0  0
   -2.9225    1.4037   -1.1403 C   0  0  0  0  0  0  0  0  0  0  0  0
   -2.2296    0.3490   -0.2736 C   0  0  2  0  0  0  0  0  0  0  0  0
   -2.6588    0.6249    1.1860 C   0  0  0  0  0  0  0  0  0  0  0  0
    1.7082   -0.5813   -1.1654 H   0  0  0  0  0  0  0  0  0  0  0  0
    2.5717   -2.5307   -0.2285 H   0  0  0  0  0  0  0  0  0  0  0  0
    2.3023   -1.9702    1.4740 H   0  0  0  0  0  0  0  0  0  0  0  0
    4.5917   -1.3657   -0.3583 H   0  0  0  0  0  0  0  0  0  0  0  0
    4.4376   -1.0760    1.4190 H   0  0  0  0  0  0  0  0  0  0  0  0
    3.8343    0.7567   -0.9322 H   0  0  0  0  0  0  0  0  0  0  0  0
    5.4071    1.2959    0.5511 H   0  0  0  0  0  0  0  0  0  0  0  0
    2.5091    0.1255    2.6010 H   0  0  0  0  0  0  0  0  0  0  0  0
    0.9388    0.9364    2.3507 H   0  0  0  0  0  0  0  0  0  0  0  0
    2.4325    1.8968    2.3460 H   0  0  0  0  0  0  0  0  0  0  0  0
    1.7249    1.8410   -1.3559 H   0  0  0  0  0  0  0  0  0  0  0  0
    1.8598    2.8716    0.1017 H   0  0  0  0  0  0  0  0  0  0  0  0
   -0.4726    2.6194   -0.7697 H   0  0  0  0  0  0  0  0  0  0  0  0
   -0.3199    2.1237    0.9313 H   0  0  0  0  0  0  0  0  0  0  0  0
   -0.4919    0.3229   -1.5648 H   0  0  0  0  0  0  0  0  0  0  0  0
   -0.0740   -0.7146    1.3301 H   0  0  0  0  0  0  0  0  0  0  0  0
   -0.2229   -2.1930   -1.3683 H   0  0  0  0  0  0  0  0  0  0  0  0
    0.1017   -2.9205    0.2449 H   0  0  0  0  0  0  0  0  0  0  0  0
   -2.2552   -3.2153   -0.4428 H   0  0  0  0  0  0  0  0  0  0  0  0
   -2.1184   -2.2689    1.0699 H   0  0  0  0  0  0  0  0  0  0  0  0
   -4.0158   -2.3484   -1.6581 H   0  0  0  0  0  0  0  0  0  0  0  0
   -4.4338    1.9360   -2.4889 H   0  0  0  0  0  0  0  0  0  0  0  0
   -2.6611    2.4456   -1.0142 H   0  0  0  0  0  0  0  0  0  0  0  0
   -2.1311   -0.0267    1.9097 H   0  0  0  0  0  0  0  0  0  0  0  0
   -3.7492    0.4410    1.3022 H   0  0  0  0  0  0  0  0  0  0  0  0
   -2.4735    1.6813    1.4719 H   0  0  0  0  0  0  0  0  0  0  0  0
  1  2  1  0
  2  3  1  0
  3  4  1  0
  4  5  1  0
  4  6  1  0
  6  7  1  1
  6  8  1  0
  8  9  1  0
  9 10  1  0
 10 11  1  0
 11 12  1  0
 12 13  1  0
 13 14  1  0
 14 15  2  0
 15 16  1  0
 16 17  2  0
 16 18  1  0
 18 19  2  0
 19 20  1  0
 20 21  1  1
  6  1  1  0
 20 10  1  0
 11  1  1  0
 20 14  1  0
  1 22  1  6
  2 23  1  0
  2 24  1  0
  3 25  1  0
  3 26  1  0
  4 27  1  6
  5 28  1  0
  7 29  1  0
  7 30  1  0
  7 31  1  0
  8 32  1  0
  8 33  1  0
  9 34  1  0
  9 35  1  0
 10 36  1  6
 11 37  1  1
 12 38  1  0
 12 39  1  0
 13 40  1  0
 13 41  1  0
 15 42  1  0
 18 43  1  0
 19 44  1  0
 21 45  1  0
 21 46  1  0
 21 47  1  0
M  END
$$$$
