
     RDKit          3D

 51 54  0  0  0  0  0  0  0  0999 V2000
   -1.2687    0.0375    0.7227 C   0  0  2  0  0  0  0  0  0  0  0  0
   -2.2523   -0.6547    1.6571 C   0  0  0  0  0  0  0  0  0  0  0  0
   -3.6383   -0.2667    1.1222 C   0  0  0  0  0  0  0  0  0  0  0  0
   -3.4328    0.4475   -0.2484 C   0  0  1  0  0  0  0  0  0  0  0  0
   -4.3451   -0.0264   -1.2116 O   0  0  0  0  0  0  0  0  0  0  0  0
   -3.6599    1.9037   -0.0684 C   0  0  0  0  0  0  0  0  0  0  0  0
   -3.8509    3.0851    0.0811 C   0  0  0  0  0  0  0  0  0  0  0  0
   -1.9514    0.1136   -0.6542 C   0  0  2  0  0  0  0  0  0  0  0  0
   -1.8799   -1.2024   -1.5408 C   0  0  0  0  0  0  0  0  0  0  0  0
   -2.4451   -2.5093   -0.9780 C   0  0  0  0  0  0  0  0  0  0  0  0
   -1.1934    1.2290   -1.4413 C   0  0  0  0  0  0  0  0  0  0  0  0
    0.3285    0.9448   -1.5516 C   0  0  0  0  0  0  0  0  0  0  0  0
    1.0100    0.5794   -0.1938 C   0  0  2  0  0  0  0  0  0  0  0  0
    2.4743    0.0816   -0.3868 C   0  0  1  0  0  0  0  0  0  0  0  0
    3.3445    1.1645   -1.0762 C   0  0  0  0  0  0  0  0  0  0  0  0
    4.8133    0.7474   -1.1484 C   0  0  0  0  0  0  0  0  0  0  0  0
    5.3117    0.3720    0.2103 C   0  0  0  0  0  0  0  0  0  0  0  0
    6.5307    0.5133    0.4940 O   0  0  0  0  0  0  0  0  0  0  0  0
    4.3995   -0.2334    1.1896 C   0  0  0  0  0  0  0  0  0  0  0  0
    3.0803   -0.3460    0.9526 C   0  0  0  0  0  0  0  0  0  0  0  0
    2.2440   -1.1558    1.9155 C   0  0  0  0  0  0  0  0  0  0  0  0
    0.8184   -0.6154    2.0247 C   0  0  0  0  0  0  0  0  0  0  0  0
    0.1867   -0.4606    0.6311 C   0  0  1  0  0  0  0  0  0  0  0  0
   -1.2064    1.0766    1.1326 H   0  0  0  0  0  0  0  0  0  0  0  0
   -2.1172   -1.7527    1.6685 H   0  0  0  0  0  0  0  0  0  0  0  0
   -2.1230   -0.2907    2.7005 H   0  0  0  0  0  0  0  0  0  0  0  0
   -4.2692   -1.1745    1.0223 H   0  0  0  0  0  0  0  0  0  0  0  0
   -4.1553    0.3883    1.8600 H   0  0  0  0  0  0  0  0  0  0  0  0
   -5.2621    0.0855   -0.8447 H   0  0  0  0  0  0  0  0  0  0  0  0
   -4.0176    4.1217    0.2122 H   0  0  0  0  0  0  0  0  0  0  0  0
   -0.8417   -1.4379   -1.8373 H   0  0  0  0  0  0  0  0  0  0  0  0
   -2.4073   -1.0029   -2.4993 H   0  0  0  0  0  0  0  0  0  0  0  0
   -1.8127   -2.8957   -0.1562 H   0  0  0  0  0  0  0  0  0  0  0  0
   -2.4222   -3.2787   -1.7788 H   0  0  0  0  0  0  0  0  0  0  0  0
   -3.4992   -2.4106   -0.6637 H   0  0  0  0  0  0  0  0  0  0  0  0
   -1.2958    2.2154   -0.9410 H   0  0  0  0  0  0  0  0  0  0  0  0
   -1.6248    1.3387   -2.4601 H   0  0  0  0  0  0  0  0  0  0  0  0
    0.7942    1.8710   -1.9503 H   0  0  0  0  0  0  0  0  0  0  0  0
    0.5265    0.1594   -2.3089 H   0  0  0  0  0  0  0  0  0  0  0  0
    1.0524    1.5224    0.3995 H   0  0  0  0  0  0  0  0  0  0  0  0
    2.4564   -0.8170   -1.0433 H   0  0  0  0  0  0  0  0  0  0  0  0
    2.9956    1.3353   -2.1162 H   0  0  0  0  0  0  0  0  0  0  0  0
    3.2658    2.1250   -0.5197 H   0  0  0  0  0  0  0  0  0  0  0  0
    4.9231   -0.1254   -1.8276 H   0  0  0  0  0  0  0  0  0  0  0  0
    5.4154    1.5890   -1.5545 H   0  0  0  0  0  0  0  0  0  0  0  0
    4.8212   -0.6059    2.1161 H   0  0  0  0  0  0  0  0  0  0  0  0
    2.6928   -1.1555    2.9335 H   0  0  0  0  0  0  0  0  0  0  0  0
    2.2136   -2.2084    1.5591 H   0  0  0  0  0  0  0  0  0  0  0  0
    0.8298    0.3628    2.5551 H   0  0  0  0  0  0  0  0  0  0  0  0
    0.2256   -1.3291    2.6360 H   0  0  0  0  0  0  0  0  0  0  0  0
    0.2181   -1.4545    0.1373 H   0  0  0  0  0  0  0  0  0  0  0  0
  1  2  1  0
  2  3  1  0
  3  4  1  0
  4  5  1  0
  4  6  1  1
  6  7  3  0
  4  8  1  0
  8  9  1  6
  9 10  1  0
  8 11  1  0
 11 12  1  0
 12 13  1  0
 13 14  1  0
 14 15  1  0
 15 16  1  0
 16 17  1  0
 17 18  2  0
 17 19  1  0
 19 20  2  0
 20 21  1  0
 21 22  1  0
 22 23  1  0
  8  1  1  0
 23 13  1  0
 23  1  1  0
 20 14  1  0
  1 24  1  1
  2 25  1  0
  2 26  1  0
  3 27  1  0
  3 28  1  0
  5 29  1  0
  7 30  1  0
  9 31  1  0
  9 32  1  0
 10 33  1  0
 10 34  1  0
 10 35  1  0
 11 36  1  0
 11 37  1  0
 12 38  1  0
 12 39  1  0
 13 40  1  1
 14 41  1  6
 15 42  1  0
 15 43  1  0
 16 44  1  0
 16 45  1  0
 19 46  1  0
 21 47  1  0
 21 48  1  0
 22 49  1  0
 22 50  1  0
 23 51  1  6
M  END
$$$$
