
     RDKit          3D

 30 31  0  0  0  0  0  0  0  0999 V2000
    5.9793   -1.1778   -1.9022 O   0  0  0  0  0  0  0  0  0  0  0  0
    5.3454   -1.0806   -0.6675 C   0  0  0  0  0  0  0  0  0  0  0  0
    6.0295   -0.9871    0.3866 O   0  0  0  0  0  0  0  0  0  0  0  0
    3.8520   -1.0396   -0.5983 C   0  0  0  0  0  0  0  0  0  0  0  0
    3.3505    0.4001   -0.7226 C   0  0  0  0  0  0  0  0  0  0  0  0
    1.8560    0.4424   -0.6557 C   0  0  0  0  0  0  0  0  0  0  0  0
    0.9887    0.2751   -1.7265 C   0  0  0  0  0  0  0  0  0  0  0  0
   -0.3614    0.2868   -1.3544 C   0  0  0  0  0  0  0  0  0  0  0  0
   -0.5646    0.4508    0.0184 C   0  0  0  0  0  0  0  0  0  0  0  0
    0.9510    0.5729    0.7532 S   0  0  0  0  0  0  0  0  0  0  0  0
   -1.8705    0.4937    0.7260 C   0  0  0  0  0  0  0  0  0  0  0  0
   -3.0751    0.6738    0.0176 C   0  0  0  0  0  0  0  0  0  0  0  0
   -4.3118    0.7142    0.6904 C   0  0  0  0  0  0  0  0  0  0  0  0
   -4.3323    0.5743    2.0874 C   0  0  0  0  0  0  0  0  0  0  0  0
   -3.1440    0.4005    2.7973 C   0  0  0  0  0  0  0  0  0  0  0  0
   -1.9216    0.3617    2.1250 C   0  0  0  0  0  0  0  0  0  0  0  0
   -5.5398    0.8996   -0.0384 N   0  0  0  0  0  4  0  0  0  0  0  0
   -6.7456    0.9439    0.6234 O   0  0  0  0  0  1  0  0  0  0  0  0
   -5.5319    1.0213   -1.2811 O   0  0  0  0  0  0  0  0  0  0  0  0
    6.9901   -1.1905   -1.9675 H   0  0  0  0  0  0  0  0  0  0  0  0
    3.5142   -1.4761    0.3674 H   0  0  0  0  0  0  0  0  0  0  0  0
    3.4341   -1.6569   -1.4232 H   0  0  0  0  0  0  0  0  0  0  0  0
    3.6872    0.8362   -1.6887 H   0  0  0  0  0  0  0  0  0  0  0  0
    3.7689    1.0181    0.1014 H   0  0  0  0  0  0  0  0  0  0  0  0
    1.3204    0.1362   -2.7472 H   0  0  0  0  0  0  0  0  0  0  0  0
   -1.1545    0.1532   -2.0763 H   0  0  0  0  0  0  0  0  0  0  0  0
   -3.0579    0.7990   -1.0555 H   0  0  0  0  0  0  0  0  0  0  0  0
   -5.2668    0.6009    2.6325 H   0  0  0  0  0  0  0  0  0  0  0  0
   -3.1704    0.2940    3.8742 H   0  0  0  0  0  0  0  0  0  0  0  0
   -1.0188    0.2186    2.7042 H   0  0  0  0  0  0  0  0  0  0  0  0
  1  2  1  0
  2  3  2  0
  2  4  1  0
  4  5  1  0
  5  6  1  0
  6  7  2  0
  7  8  1  0
  8  9  2  0
  9 10  1  0
  9 11  1  0
 11 12  2  0
 12 13  1  0
 13 14  2  0
 14 15  1  0
 15 16  2  0
 13 17  1  0
 17 18  1  0
 17 19  2  0
 10  6  1  0
 16 11  1  0
  1 20  1  0
  4 21  1  0
  4 22  1  0
  5 23  1  0
  5 24  1  0
  7 25  1  0
  8 26  1  0
 12 27  1  0
 14 28  1  0
 15 29  1  0
 16 30  1  0
M  CHG  2  17   1  18  -1
M  END
$$$$
