
     RDKit          3D

 71 73  0  0  0  0  0  0  0  0999 V2000
    4.5726   -2.0325    3.8940 C   0  0  0  0  0  0  0  0  0  0  0  0
    5.0320   -0.6109    3.5900 C   0  0  0  0  0  0  0  0  0  0  0  0
    4.9860   -0.3491    2.1461 N   0  0  0  0  0  0  0  0  0  0  0  0
    6.2146   -0.1111    1.3782 C   0  0  0  0  0  0  0  0  0  0  0  0
    6.4337   -1.2218    0.3567 C   0  0  0  0  0  0  0  0  0  0  0  0
    3.7159   -0.1294    1.5161 C   0  0  0  0  0  0  0  0  0  0  0  0
    3.1674    1.1581    1.4738 C   0  0  0  0  0  0  0  0  0  0  0  0
    1.9354    1.3775    0.8517 C   0  0  0  0  0  0  0  0  0  0  0  0
    1.2312    0.3082    0.2728 C   0  0  0  0  0  0  0  0  0  0  0  0
    1.7939   -0.9804    0.3076 C   0  0  0  0  0  0  0  0  0  0  0  0
    3.0256   -1.1972    0.9296 C   0  0  0  0  0  0  0  0  0  0  0  0
   -0.0531    0.5560   -0.4334 C   0  0  0  0  0  0  0  0  0  0  0  0
   -1.1934   -0.1257   -0.1362 C   0  0  0  0  0  0  0  0  0  0  0  0
   -1.2764   -1.0409    1.0300 C   0  0  0  0  0  0  0  0  0  0  0  0
   -2.3851   -1.7356    1.2962 C   0  0  0  0  0  0  0  0  0  0  0  0
   -3.6079   -1.6299    0.4407 C   0  0  0  0  0  0  0  0  0  0  0  0
   -3.5323   -0.6588   -0.6948 C   0  0  0  0  0  0  0  0  0  0  0  0
   -2.4223    0.0357   -0.9550 C   0  0  0  0  0  0  0  0  0  0  0  0
   -4.6943   -2.3608    0.6716 N   0  0  0  0  0  4  0  0  0  0  0  0
   -4.7541   -3.3456    1.7768 C   0  0  0  0  0  0  0  0  0  0  0  0
   -5.0543   -2.6617    3.1109 C   0  0  0  0  0  0  0  0  0  0  0  0
   -5.9000   -2.2633   -0.1840 C   0  0  0  0  0  0  0  0  0  0  0  0
   -6.7398   -1.0384    0.1804 C   0  0  0  0  0  0  0  0  0  0  0  0
   -0.0524    1.6333   -1.4554 C   0  0  0  0  0  0  0  0  0  0  0  0
    0.5412    1.4652   -2.7274 C   0  0  0  0  0  0  0  0  0  0  0  0
    0.5444    2.5379   -3.6312 C   0  0  0  0  0  0  0  0  0  0  0  0
   -0.0423    3.7654   -3.2951 C   0  0  0  0  0  0  0  0  0  0  0  0
   -0.6491    3.9228   -2.0397 C   0  0  0  0  0  0  0  0  0  0  0  0
   -1.2525    5.1328   -1.6979 O   0  0  0  0  0  0  0  0  0  0  0  0
   -0.6473    2.8614   -1.1280 C   0  0  0  0  0  0  0  0  0  0  0  0
   -0.0360    5.0931   -4.4593 S   0  0  0  0  0  6  0  0  0  0  0  0
   -1.5698    5.2684   -5.1250 O   0  0  0  0  0  0  0  0  0  0  0  0
    0.3732    6.3693   -3.7784 O   0  0  0  0  0  0  0  0  0  0  0  0
    0.9435    4.8071   -5.5629 O   0  0  0  0  0  0  0  0  0  0  0  0
    1.2732   -0.0664   -3.2274 S   0  0  0  0  0  6  0  0  0  0  0  0
    1.4219   -0.1192   -4.9021 O   0  0  0  0  0  0  0  0  0  0  0  0
    2.6399   -0.1900   -2.6161 O   0  0  0  0  0  0  0  0  0  0  0  0
    0.4192   -1.2235   -2.7896 O   0  0  0  0  0  0  0  0  0  0  0  0
    3.5034   -2.1597    3.6237 H   0  0  0  0  0  0  0  0  0  0  0  0
    5.1859   -2.7616    3.3231 H   0  0  0  0  0  0  0  0  0  0  0  0
    4.6883   -2.2378    4.9791 H   0  0  0  0  0  0  0  0  0  0  0  0
    4.3801    0.1139    4.1245 H   0  0  0  0  0  0  0  0  0  0  0  0
    6.0625   -0.4827    3.9853 H   0  0  0  0  0  0  0  0  0  0  0  0
    7.1009   -0.0695    2.0469 H   0  0  0  0  0  0  0  0  0  0  0  0
    6.1473    0.8676    0.8552 H   0  0  0  0  0  0  0  0  0  0  0  0
    5.6220   -1.2162   -0.4008 H   0  0  0  0  0  0  0  0  0  0  0  0
    6.4550   -2.2087    0.8658 H   0  0  0  0  0  0  0  0  0  0  0  0
    7.4022   -1.0648   -0.1631 H   0  0  0  0  0  0  0  0  0  0  0  0
    3.6985    1.9893    1.9201 H   0  0  0  0  0  0  0  0  0  0  0  0
    1.5291    2.3808    0.8267 H   0  0  0  0  0  0  0  0  0  0  0  0
    1.2838   -1.8146   -0.1576 H   0  0  0  0  0  0  0  0  0  0  0  0
    3.4481   -2.1939    0.9480 H   0  0  0  0  0  0  0  0  0  0  0  0
   -0.4471   -1.1370    1.7182 H   0  0  0  0  0  0  0  0  0  0  0  0
   -2.3590   -2.3630    2.1742 H   0  0  0  0  0  0  0  0  0  0  0  0
   -4.3725   -0.4831   -1.3493 H   0  0  0  0  0  0  0  0  0  0  0  0
   -2.4359    0.7068   -1.8048 H   0  0  0  0  0  0  0  0  0  0  0  0
   -3.8215   -3.9455    1.8311 H   0  0  0  0  0  0  0  0  0  0  0  0
   -5.5515   -4.0998    1.6041 H   0  0  0  0  0  0  0  0  0  0  0  0
   -4.3313   -1.8479    3.3216 H   0  0  0  0  0  0  0  0  0  0  0  0
   -6.0769   -2.2314    3.0948 H   0  0  0  0  0  0  0  0  0  0  0  0
   -4.9994   -3.4079    3.9311 H   0  0  0  0  0  0  0  0  0  0  0  0
   -5.6288   -2.2622   -1.2605 H   0  0  0  0  0  0  0  0  0  0  0  0
   -6.5517   -3.1557   -0.0685 H   0  0  0  0  0  0  0  0  0  0  0  0
   -6.1395   -0.1072    0.1406 H   0  0  0  0  0  0  0  0  0  0  0  0
   -7.1504   -1.1511    1.2049 H   0  0  0  0  0  0  0  0  0  0  0  0
   -7.5877   -0.9452   -0.5302 H   0  0  0  0  0  0  0  0  0  0  0  0
    1.0034    2.4161   -4.6030 H   0  0  0  0  0  0  0  0  0  0  0  0
   -1.6971    5.2696   -0.7978 H   0  0  0  0  0  0  0  0  0  0  0  0
   -1.1073    2.9937   -0.1557 H   0  0  0  0  0  0  0  0  0  0  0  0
   -2.1466    5.5508   -4.3710 H   0  0  0  0  0  0  0  0  0  0  0  0
    0.4913   -0.1423   -5.2412 H   0  0  0  0  0  0  0  0  0  0  0  0
  1  2  1  0
  2  3  1  0
  3  4  1  0
  4  5  1  0
  3  6  1  0
  6  7  2  0
  7  8  1  0
  8  9  2  0
  9 10  1  0
 10 11  2  0
  9 12  1  0
 12 13  2  3
 13 14  1  0
 14 15  2  0
 15 16  1  0
 16 17  1  0
 17 18  2  0
 16 19  2  3
 19 20  1  0
 20 21  1  0
 19 22  1  0
 22 23  1  0
 12 24  1  0
 24 25  2  0
 25 26  1  0
 26 27  2  0
 27 28  1  0
 28 29  1  0
 28 30  2  0
 27 31  1  0
 31 32  1  0
 31 33  2  0
 31 34  2  0
 25 35  1  0
 35 36  1  0
 35 37  2  0
 35 38  2  0
 11  6  1  0
 18 13  1  0
 30 24  1  0
  1 39  1  0
  1 40  1  0
  1 41  1  0
  2 42  1  0
  2 43  1  0
  4 44  1  0
  4 45  1  0
  5 46  1  0
  5 47  1  0
  5 48  1  0
  7 49  1  0
  8 50  1  0
 10 51  1  0
 11 52  1  0
 14 53  1  0
 15 54  1  0
 17 55  1  0
 18 56  1  0
 20 57  1  0
 20 58  1  0
 21 59  1  0
 21 60  1  0
 21 61  1  0
 22 62  1  0
 22 63  1  0
 23 64  1  0
 23 65  1  0
 23 66  1  0
 26 67  1  0
 29 68  1  0
 30 69  1  0
 32 70  1  0
 36 71  1  0
M  CHG  1  19   1
M  END
$$$$
