
     RDKit          3D

 57 58  0  0  0  0  0  0  0  0999 V2000
   -1.5625    0.7358   -0.8668 C   0  0  2  0  0  0  0  0  0  0  0  0
   -0.4149    1.0729    0.1072 C   0  0  0  0  0  0  0  0  0  0  0  0
    1.0611    1.7233   -0.7527 P   0  0  2  0  0  5  0  0  0  0  0  0
    0.7488    3.2983   -1.2883 O   0  0  0  0  0  0  0  0  0  0  0  0
    1.3496    0.8505   -1.9536 O   0  0  0  0  0  0  0  0  0  0  0  0
    2.4854    1.6511    0.4310 C   0  0  1  0  0  0  0  0  0  0  0  0
    3.7304    1.2204   -0.2354 N   0  0  0  0  0  0  0  0  0  0  0  0
    4.0789   -0.4650    0.0396 S   0  0  0  0  0  6  0  0  0  0  0  0
    4.3561   -0.6838    1.5011 O   0  0  0  0  0  0  0  0  0  0  0  0
    5.3108   -0.8430   -0.7341 O   0  0  0  0  0  0  0  0  0  0  0  0
    2.7411   -1.4964   -0.4698 C   0  0  0  0  0  0  0  0  0  0  0  0
    1.7740   -1.9154    0.4566 C   0  0  0  0  0  0  0  0  0  0  0  0
    0.6951   -2.7020    0.0404 C   0  0  0  0  0  0  0  0  0  0  0  0
    0.5825   -3.0828   -1.2993 C   0  0  0  0  0  0  0  0  0  0  0  0
    1.5491   -2.6782   -2.2242 C   0  0  0  0  0  0  0  0  0  0  0  0
    2.6276   -1.8891   -1.8115 C   0  0  0  0  0  0  0  0  0  0  0  0
    2.7466    2.9665    1.2171 C   0  0  0  0  0  0  0  0  0  0  0  0
    3.3594    4.0945    0.3693 C   0  0  0  0  0  0  0  0  0  0  0  0
    1.5089    3.4616    1.9795 C   0  0  0  0  0  0  0  0  0  0  0  0
   -2.2405    1.9660   -1.4107 C   0  0  0  0  0  0  0  0  0  0  0  0
   -2.5927    2.0158   -2.7559 O   0  0  0  0  0  0  0  0  0  0  0  0
   -2.5226    2.9354   -0.6552 O   0  0  0  0  0  0  0  0  0  0  0  0
   -2.5726   -0.1778   -0.2013 C   0  0  0  0  0  0  0  0  0  0  0  0
   -2.7500   -1.4906   -0.6743 C   0  0  0  0  0  0  0  0  0  0  0  0
   -3.6432   -2.3668   -0.0389 C   0  0  0  0  0  0  0  0  0  0  0  0
   -3.7779   -3.7845   -0.5212 C   0  0  0  0  0  0  0  0  0  0  0  0
   -2.6960   -4.5984    0.0224 N   0  0  0  0  0  0  0  0  0  0  0  0
   -4.3536   -1.9299    1.0889 C   0  0  0  0  0  0  0  0  0  0  0  0
   -4.1869   -0.6272    1.5632 C   0  0  0  0  0  0  0  0  0  0  0  0
   -3.3009    0.2448    0.9263 C   0  0  0  0  0  0  0  0  0  0  0  0
   -1.1210    0.1965   -1.7336 H   0  0  0  0  0  0  0  0  0  0  0  0
   -0.1100    0.1484    0.6392 H   0  0  0  0  0  0  0  0  0  0  0  0
   -0.7441    1.8021    0.8765 H   0  0  0  0  0  0  0  0  0  0  0  0
    0.2533    3.1906   -2.1387 H   0  0  0  0  0  0  0  0  0  0  0  0
    2.1966    0.9043    1.2024 H   0  0  0  0  0  0  0  0  0  0  0  0
    3.7011    1.3962   -1.2650 H   0  0  0  0  0  0  0  0  0  0  0  0
    1.8439   -1.6205    1.4956 H   0  0  0  0  0  0  0  0  0  0  0  0
   -0.0568   -3.0113    0.7550 H   0  0  0  0  0  0  0  0  0  0  0  0
   -0.2538   -3.6899   -1.6208 H   0  0  0  0  0  0  0  0  0  0  0  0
    1.4601   -2.9719   -3.2621 H   0  0  0  0  0  0  0  0  0  0  0  0
    3.3632   -1.5709   -2.5392 H   0  0  0  0  0  0  0  0  0  0  0  0
    3.5071    2.7165    1.9912 H   0  0  0  0  0  0  0  0  0  0  0  0
    3.6400    4.9451    1.0266 H   0  0  0  0  0  0  0  0  0  0  0  0
    4.2834    3.7492   -0.1394 H   0  0  0  0  0  0  0  0  0  0  0  0
    2.6527    4.4744   -0.3911 H   0  0  0  0  0  0  0  0  0  0  0  0
    1.0726    2.6376    2.5832 H   0  0  0  0  0  0  0  0  0  0  0  0
    0.7365    3.8515    1.2854 H   0  0  0  0  0  0  0  0  0  0  0  0
    1.7949    4.2806    2.6734 H   0  0  0  0  0  0  0  0  0  0  0  0
   -3.0593    2.8283   -3.1409 H   0  0  0  0  0  0  0  0  0  0  0  0
   -2.1852   -1.8388   -1.5306 H   0  0  0  0  0  0  0  0  0  0  0  0
   -3.7320   -3.8050   -1.6323 H   0  0  0  0  0  0  0  0  0  0  0  0
   -4.7619   -4.2102   -0.2212 H   0  0  0  0  0  0  0  0  0  0  0  0
   -2.8504   -4.7021    1.0520 H   0  0  0  0  0  0  0  0  0  0  0  0
   -2.7796   -5.5559   -0.3893 H   0  0  0  0  0  0  0  0  0  0  0  0
   -5.0318   -2.5990    1.6039 H   0  0  0  0  0  0  0  0  0  0  0  0
   -4.7374   -0.2957    2.4342 H   0  0  0  0  0  0  0  0  0  0  0  0
   -3.1730    1.2439    1.3222 H   0  0  0  0  0  0  0  0  0  0  0  0
  1  2  1  0
  2  3  1  0
  3  4  1  6
  3  5  2  0
  3  6  1  0
  6  7  1  0
  7  8  1  0
  8  9  2  0
  8 10  2  0
  8 11  1  0
 11 12  2  0
 12 13  1  0
 13 14  2  0
 14 15  1  0
 15 16  2  0
  6 17  1  0
 17 18  1  0
 17 19  1  0
  1 20  1  0
 20 21  1  0
 20 22  2  0
  1 23  1  0
 23 24  2  0
 24 25  1  0
 25 26  1  0
 26 27  1  0
 25 28  2  0
 28 29  1  0
 29 30  2  0
 16 11  1  0
 30 23  1  0
  1 31  1  6
  2 32  1  0
  2 33  1  0
  4 34  1  0
  6 35  1  1
  7 36  1  0
 12 37  1  0
 13 38  1  0
 14 39  1  0
 15 40  1  0
 16 41  1  0
 17 42  1  0
 18 43  1  0
 18 44  1  0
 18 45  1  0
 19 46  1  0
 19 47  1  0
 19 48  1  0
 21 49  1  0
 24 50  1  0
 26 51  1  0
 26 52  1  0
 27 53  1  0
 27 54  1  0
 28 55  1  0
 29 56  1  0
 30 57  1  0
M  END
$$$$
