
     RDKit          3D

 37 39  0  0  0  0  0  0  0  0999 V2000
    0.4902   -0.9662   -0.5895 C   0  0  2  0  0  0  0  0  0  0  0  0
   -0.6535   -0.0338   -1.0355 C   0  0  0  0  0  0  0  0  0  0  0  0
   -1.5819   -0.0584    0.1462 C   0  0  0  0  0  0  0  0  0  0  0  0
   -1.1715   -0.8589    1.0688 N   0  0  0  0  0  0  0  0  0  0  0  0
    0.0411   -1.4449    0.7122 N   0  0  0  0  0  0  0  0  0  0  0  0
    0.6764   -2.4477    1.5195 C   0  0  0  0  0  0  0  0  0  0  0  0
    1.9487   -3.1062    1.0838 C   0  0  0  0  0  0  0  0  0  0  0  0
    0.1710   -2.7627    2.6301 O   0  0  0  0  0  0  0  0  0  0  0  0
   -2.8501    0.7190    0.2437 C   0  0  0  0  0  0  0  0  0  0  0  0
   -3.5405    0.9144    1.4708 C   0  0  0  0  0  0  0  0  0  0  0  0
   -2.9484    0.3160    3.0193 Cl  0  0  0  0  0  0  0  0  0  0  0  0
   -4.7349    1.6468    1.4922 C   0  0  0  0  0  0  0  0  0  0  0  0
   -5.2535    2.1943    0.3197 C   0  0  0  0  0  0  0  0  0  0  0  0
   -4.5801    2.0200   -0.8869 C   0  0  0  0  0  0  0  0  0  0  0  0
   -3.3890    1.2924   -0.9268 C   0  0  0  0  0  0  0  0  0  0  0  0
    1.8075   -0.2274   -0.4775 C   0  0  0  0  0  0  0  0  0  0  0  0
    2.0016    0.7561    0.5100 C   0  0  0  0  0  0  0  0  0  0  0  0
    3.2194    1.4352    0.5997 C   0  0  0  0  0  0  0  0  0  0  0  0
    4.2514    1.1453   -0.2958 C   0  0  0  0  0  0  0  0  0  0  0  0
    4.0691    0.1770   -1.2879 C   0  0  0  0  0  0  0  0  0  0  0  0
    5.1059   -0.0995   -2.1763 O   0  0  0  0  0  0  0  0  0  0  0  0
    2.8476   -0.5055   -1.3805 C   0  0  0  0  0  0  0  0  0  0  0  0
    0.5660   -1.8264   -1.2914 H   0  0  0  0  0  0  0  0  0  0  0  0
   -0.3149    1.0054   -1.2408 H   0  0  0  0  0  0  0  0  0  0  0  0
   -1.1621   -0.4536   -1.9298 H   0  0  0  0  0  0  0  0  0  0  0  0
    2.7899   -2.3882    1.1740 H   0  0  0  0  0  0  0  0  0  0  0  0
    1.8627   -3.4459    0.0311 H   0  0  0  0  0  0  0  0  0  0  0  0
    2.1649   -3.9903    1.7204 H   0  0  0  0  0  0  0  0  0  0  0  0
   -5.2621    1.7996    2.4257 H   0  0  0  0  0  0  0  0  0  0  0  0
   -6.1762    2.7595    0.3478 H   0  0  0  0  0  0  0  0  0  0  0  0
   -4.9820    2.4490   -1.7958 H   0  0  0  0  0  0  0  0  0  0  0  0
   -2.8976    1.1751   -1.8832 H   0  0  0  0  0  0  0  0  0  0  0  0
    1.2104    0.9961    1.2093 H   0  0  0  0  0  0  0  0  0  0  0  0
    3.3629    2.1882    1.3639 H   0  0  0  0  0  0  0  0  0  0  0  0
    5.1927    1.6749   -0.2209 H   0  0  0  0  0  0  0  0  0  0  0  0
    5.0064   -0.7953   -2.9064 H   0  0  0  0  0  0  0  0  0  0  0  0
    2.7125   -1.2532   -2.1523 H   0  0  0  0  0  0  0  0  0  0  0  0
  1  2  1  0
  2  3  1  0
  3  4  2  0
  4  5  1  0
  5  6  1  0
  6  7  1  0
  6  8  2  0
  3  9  1  0
  9 10  2  0
 10 11  1  0
 10 12  1  0
 12 13  2  0
 13 14  1  0
 14 15  2  0
  1 16  1  0
 16 17  2  0
 17 18  1  0
 18 19  2  0
 19 20  1  0
 20 21  1  0
 20 22  2  0
  5  1  1  0
 15  9  1  0
 22 16  1  0
  1 23  1  6
  2 24  1  0
  2 25  1  0
  7 26  1  0
  7 27  1  0
  7 28  1  0
 12 29  1  0
 13 30  1  0
 14 31  1  0
 15 32  1  0
 17 33  1  0
 18 34  1  0
 19 35  1  0
 21 36  1  0
 22 37  1  0
M  END
$$$$
