
     RDKit          3D

 68 71  0  0  0  0  0  0  0  0999 V2000
    6.8358    1.4253   -1.7376 C   0  0  0  0  0  0  0  0  0  0  0  0
    5.7178    1.5476   -0.6846 C   0  0  0  0  0  0  0  0  0  0  0  0
    6.2330    2.2063    0.5988 C   0  0  0  0  0  0  0  0  0  0  0  0
    5.0080    0.2179   -0.3716 C   0  0  0  0  0  0  0  0  0  0  0  0
    3.5878    0.1354   -0.2298 C   0  0  0  0  0  0  0  0  0  0  0  0
    2.7943    1.3003   -0.1347 C   0  0  0  0  0  0  0  0  0  0  0  0
    1.4034    1.2407   -0.0378 C   0  0  0  0  0  0  0  0  0  0  0  0
    0.6121    2.5257    0.0194 C   0  0  0  0  0  0  0  0  0  0  0  0
    0.7694   -0.0079    0.0642 C   0  0  0  0  0  0  0  0  0  0  0  0
    1.5343   -1.1934    0.0433 C   0  0  0  0  0  0  0  0  0  0  0  0
    0.8953   -2.4214    0.2513 O   0  0  0  0  0  0  0  0  0  0  0  0
    2.9488   -1.1395   -0.1421 C   0  0  0  0  0  0  0  0  0  0  0  0
    3.7531   -2.3173   -0.1864 C   0  0  0  0  0  0  0  0  0  0  0  0
    3.1720   -3.6675   -0.3330 C   0  0  0  0  0  0  0  0  0  0  0  0
    2.4525   -3.9457   -1.3288 O   0  0  0  0  0  0  0  0  0  0  0  0
    5.1560   -2.2084   -0.1292 C   0  0  0  0  0  0  0  0  0  0  0  0
    5.9763   -3.3406   -0.0506 O   0  0  0  0  0  0  0  0  0  0  0  0
    5.7718   -0.9540   -0.1825 C   0  0  0  0  0  0  0  0  0  0  0  0
    7.1602   -0.8688   -0.0541 O   0  0  0  0  0  0  0  0  0  0  0  0
   -0.7054   -0.0753    0.2300 C   0  0  0  0  0  0  0  0  0  0  0  0
   -1.5207   -0.1515   -0.9103 C   0  0  0  0  0  0  0  0  0  0  0  0
   -0.9010   -0.0131   -2.1568 O   0  0  0  0  0  0  0  0  0  0  0  0
   -2.9324   -0.2854   -0.7737 C   0  0  0  0  0  0  0  0  0  0  0  0
   -3.7689   -0.7236   -1.8363 C   0  0  0  0  0  0  0  0  0  0  0  0
   -3.2020   -1.4187   -3.0200 C   0  0  0  0  0  0  0  0  0  0  0  0
   -3.7655   -1.3649   -4.1454 O   0  0  0  0  0  0  0  0  0  0  0  0
   -5.1691   -0.7003   -1.6792 C   0  0  0  0  0  0  0  0  0  0  0  0
   -5.9661   -1.2274   -2.7027 O   0  0  0  0  0  0  0  0  0  0  0  0
   -5.7458   -0.1948   -0.4957 C   0  0  0  0  0  0  0  0  0  0  0  0
   -7.1336   -0.0873   -0.3698 O   0  0  0  0  0  0  0  0  0  0  0  0
   -4.9274    0.1908    0.5920 C   0  0  0  0  0  0  0  0  0  0  0  0
   -5.5592    0.8198    1.8467 C   0  0  0  0  0  0  0  0  0  0  0  0
   -6.2161   -0.2495    2.7250 C   0  0  0  0  0  0  0  0  0  0  0  0
   -6.5342    1.9707    1.5358 C   0  0  0  0  0  0  0  0  0  0  0  0
   -3.5185   -0.0008    0.4902 C   0  0  0  0  0  0  0  0  0  0  0  0
   -2.6779    0.0505    1.6248 C   0  0  0  0  0  0  0  0  0  0  0  0
   -1.2867   -0.0352    1.5090 C   0  0  0  0  0  0  0  0  0  0  0  0
   -0.4343   -0.0039    2.7529 C   0  0  0  0  0  0  0  0  0  0  0  0
    6.5261    0.7398   -2.5553 H   0  0  0  0  0  0  0  0  0  0  0  0
    7.0390    2.4221   -2.1860 H   0  0  0  0  0  0  0  0  0  0  0  0
    7.7918    1.0733   -1.2999 H   0  0  0  0  0  0  0  0  0  0  0  0
    5.0100    2.2475   -1.1684 H   0  0  0  0  0  0  0  0  0  0  0  0
    7.0027    1.5717    1.0866 H   0  0  0  0  0  0  0  0  0  0  0  0
    5.3956    2.3615    1.3117 H   0  0  0  0  0  0  0  0  0  0  0  0
    6.6806    3.1964    0.3671 H   0  0  0  0  0  0  0  0  0  0  0  0
    3.2382    2.2814   -0.0874 H   0  0  0  0  0  0  0  0  0  0  0  0
   -0.2285    2.4912   -0.7046 H   0  0  0  0  0  0  0  0  0  0  0  0
    1.2369    3.4067   -0.2398 H   0  0  0  0  0  0  0  0  0  0  0  0
    0.2071    2.6730    1.0417 H   0  0  0  0  0  0  0  0  0  0  0  0
   -0.1006   -2.5233    0.4001 H   0  0  0  0  0  0  0  0  0  0  0  0
    3.3919   -4.4387    0.3933 H   0  0  0  0  0  0  0  0  0  0  0  0
    5.6311   -4.2908   -0.0257 H   0  0  0  0  0  0  0  0  0  0  0  0
    7.7521   -1.6777    0.0901 H   0  0  0  0  0  0  0  0  0  0  0  0
   -1.3908    0.3158   -2.9787 H   0  0  0  0  0  0  0  0  0  0  0  0
   -2.2805   -1.9787   -2.9293 H   0  0  0  0  0  0  0  0  0  0  0  0
   -6.9562   -1.4088   -2.6223 H   0  0  0  0  0  0  0  0  0  0  0  0
   -7.7867   -0.1797   -1.1343 H   0  0  0  0  0  0  0  0  0  0  0  0
   -4.7805    1.3177    2.4561 H   0  0  0  0  0  0  0  0  0  0  0  0
   -7.0598   -0.7376    2.1935 H   0  0  0  0  0  0  0  0  0  0  0  0
   -5.4707   -1.0259    3.0000 H   0  0  0  0  0  0  0  0  0  0  0  0
   -6.6021    0.2091    3.6603 H   0  0  0  0  0  0  0  0  0  0  0  0
   -6.1363    2.6052    0.7151 H   0  0  0  0  0  0  0  0  0  0  0  0
   -7.5459    1.6068    1.2656 H   0  0  0  0  0  0  0  0  0  0  0  0
   -6.6558    2.6120    2.4357 H   0  0  0  0  0  0  0  0  0  0  0  0
   -3.0896    0.0889    2.6221 H   0  0  0  0  0  0  0  0  0  0  0  0
   -1.0400   -0.1677    3.6693 H   0  0  0  0  0  0  0  0  0  0  0  0
    0.0716    0.9798    2.8374 H   0  0  0  0  0  0  0  0  0  0  0  0
    0.3324   -0.8056    2.7122 H   0  0  0  0  0  0  0  0  0  0  0  0
  1  2  1  0
  2  3  1  0
  2  4  1  0
  4  5  2  0
  5  6  1  0
  6  7  2  0
  7  8  1  0
  7  9  1  0
  9 10  2  0
 10 11  1  0
 10 12  1  0
 12 13  2  0
 13 14  1  0
 14 15  2  0
 13 16  1  0
 16 17  1  0
 16 18  2  0
 18 19  1  0
  9 20  1  0
 20 21  2  0
 21 22  1  0
 21 23  1  0
 23 24  2  0
 24 25  1  0
 25 26  2  0
 24 27  1  0
 27 28  1  0
 27 29  2  0
 29 30  1  0
 29 31  1  0
 31 32  1  0
 32 33  1  0
 32 34  1  0
 31 35  2  0
 35 36  1  0
 36 37  2  0
 37 38  1  0
 18  4  1  0
 37 20  1  0
 12  5  1  0
 35 23  1  0
  1 39  1  0
  1 40  1  0
  1 41  1  0
  2 42  1  0
  3 43  1  0
  3 44  1  0
  3 45  1  0
  6 46  1  0
  8 47  1  0
  8 48  1  0
  8 49  1  0
 11 50  1  0
 14 51  1  0
 17 52  1  0
 19 53  1  0
 22 54  1  0
 25 55  1  0
 28 56  1  0
 30 57  1  0
 32 58  1  0
 33 59  1  0
 33 60  1  0
 33 61  1  0
 34 62  1  0
 34 63  1  0
 34 64  1  0
 36 65  1  0
 38 66  1  0
 38 67  1  0
 38 68  1  0
M  END
$$$$
