
     RDKit          3D

102105  0  0  0  0  0  0  0  0999 V2000
   -3.1133    0.1934   -0.5154 C   0  0  0  0  0  0  0  0  0  0  0  0
   -1.6486    0.1501   -0.1953 C   0  0  0  0  0  0  0  0  0  0  0  0
   -0.8324    1.2592   -0.4661 C   0  0  0  0  0  0  0  0  0  0  0  0
    0.5398    1.2056   -0.2027 C   0  0  0  0  0  0  0  0  0  0  0  0
    1.1116    0.0408    0.3265 C   0  0  0  0  0  0  0  0  0  0  0  0
    0.3027   -1.0765    0.5734 C   0  0  0  0  0  0  0  0  0  0  0  0
   -1.0696   -1.0240    0.3103 C   0  0  0  0  0  0  0  0  0  0  0  0
    2.8422   -0.0323    0.6427 S   0  0  0  0  0  6  0  0  0  0  0  0
    3.6456   -0.5727   -0.7312 O   0  0  0  0  0  0  0  0  0  0  0  0
    3.1176   -0.9655    1.7886 O   0  0  0  0  0  0  0  0  0  0  0  0
    3.3470    1.3355    1.0072 O   0  0  0  0  0  0  0  0  0  0  0  0
   -3.1502    0.0998   -0.2214 C   0  0  0  0  0  0  0  0  0  0  0  0
   -1.6659    0.0401   -0.0145 C   0  0  0  0  0  0  0  0  0  0  0  0
   -0.9464   -1.1078   -0.3808 C   0  0  0  0  0  0  0  0  0  0  0  0
    0.4423   -1.1495   -0.2229 C   0  0  0  0  0  0  0  0  0  0  0  0
    1.1270   -0.0420    0.2952 C   0  0  0  0  0  0  0  0  0  0  0  0
    0.4134    1.1145    0.6374 C   0  0  0  0  0  0  0  0  0  0  0  0
   -0.9752    1.1572    0.4799 C   0  0  0  0  0  0  0  0  0  0  0  0
    2.8776   -0.0901    0.4780 S   0  0  0  0  0  6  0  0  0  0  0  0
    3.6085    0.4647   -0.9302 O   0  0  0  0  0  0  0  0  0  0  0  0
    3.2892    0.7846    1.6287 O   0  0  0  0  0  0  0  0  0  0  0  0
    3.3277   -1.4963    0.7604 O   0  0  0  0  0  0  0  0  0  0  0  0
    6.8935    3.0227    0.0738 C   0  0  0  0  0  0  0  0  0  0  0  0
    6.5210    1.7736   -0.6084 N   0  0  0  0  0  0  0  0  0  0  0  0
    6.6871    0.6200    0.3036 C   0  0  0  0  0  0  0  0  0  0  0  0
    5.8606   -0.5870   -0.1632 C   0  0  0  0  0  0  0  0  0  0  0  0
    4.4017   -0.2899   -0.2016 N   0  0  0  0  0  0  0  0  0  0  0  0
    4.1004    1.1585   -0.3593 C   0  0  0  0  0  0  0  0  0  0  0  0
    5.1671    1.8668   -1.2071 C   0  0  0  0  0  0  0  0  0  0  0  0
    3.5689   -0.9980    0.8253 C   0  0  0  0  0  0  0  0  0  0  0  0
    3.5958   -2.5217    0.5730 C   0  0  0  0  0  0  0  0  0  0  0  0
    4.0279   -0.6997    2.2712 C   0  0  0  0  0  0  0  0  0  0  0  0
    2.1492   -0.5940    0.7046 C   0  0  0  0  0  0  0  0  0  0  0  0
    0.9907   -0.2770    0.6038 C   0  0  0  0  0  0  0  0  0  0  0  0
   -0.3992    0.0818    0.4787 C   0  0  0  0  0  0  0  0  0  0  0  0
   -1.3787   -0.9054    0.2529 C   0  0  0  0  0  0  0  0  0  0  0  0
   -0.9921   -2.2812    0.0820 N   0  0  0  0  0  0  0  0  0  0  0  0
   -1.6634   -3.3751    0.7355 C   0  0  0  0  0  0  0  0  0  0  0  0
   -2.6692   -3.1524    1.4619 O   0  0  0  0  0  0  0  0  0  0  0  0
   -1.2141   -4.7748    0.5859 C   0  0  0  0  0  0  0  0  0  0  0  0
   -0.0054   -5.1296    0.1504 C   0  0  0  0  0  0  0  0  0  0  0  0
   -2.7271   -0.5257    0.1350 C   0  0  0  0  0  0  0  0  0  0  0  0
   -3.1079    0.8218    0.2790 C   0  0  0  0  0  0  0  0  0  0  0  0
   -4.4483    1.2551    0.1780 C   0  0  0  0  0  0  0  0  0  0  0  0
   -5.5304    0.3214    0.0174 N   0  0  0  0  0  0  0  0  0  0  0  0
   -6.7523    0.6378   -0.6724 C   0  0  0  0  0  0  0  0  0  0  0  0
   -7.9356   -0.0319   -0.3243 C   0  0  0  0  0  0  0  0  0  0  0  0
   -9.1301    0.2465   -0.9947 C   0  0  0  0  0  0  0  0  0  0  0  0
   -9.1526    1.1870   -2.0279 C   0  0  0  0  0  0  0  0  0  0  0  0
  -10.3172    1.4484   -2.6726 F   0  0  0  0  0  0  0  0  0  0  0  0
   -7.9744    1.8471   -2.3977 C   0  0  0  0  0  0  0  0  0  0  0  0
   -7.9869    3.0159   -3.7077 Cl  0  0  0  0  0  0  0  0  0  0  0  0
   -6.7775    1.5695   -1.7272 C   0  0  0  0  0  0  0  0  0  0  0  0
   -4.7270    2.5824    0.2957 N   0  0  0  0  0  0  0  0  0  0  0  0
   -3.7504    3.5012    0.5019 C   0  0  0  0  0  0  0  0  0  0  0  0
   -2.4571    3.1079    0.6073 N   0  0  0  0  0  0  0  0  0  0  0  0
   -2.1129    1.7986    0.5021 C   0  0  0  0  0  0  0  0  0  0  0  0
   -0.7701    1.4251    0.6034 C   0  0  0  0  0  0  0  0  0  0  0  0
   -3.5081    1.2259   -0.4047 H   0  0  0  0  0  0  0  0  0  0  0  0
   -3.6840   -0.4675    0.1713 H   0  0  0  0  0  0  0  0  0  0  0  0
   -3.2729   -0.1454   -1.5602 H   0  0  0  0  0  0  0  0  0  0  0  0
   -1.2577    2.1643   -0.8819 H   0  0  0  0  0  0  0  0  0  0  0  0
    1.1554    2.0699   -0.4171 H   0  0  0  0  0  0  0  0  0  0  0  0
    0.7339   -1.9897    0.9634 H   0  0  0  0  0  0  0  0  0  0  0  0
   -1.6797   -1.8986    0.4997 H   0  0  0  0  0  0  0  0  0  0  0  0
    3.2706   -1.4722   -0.9085 H   0  0  0  0  0  0  0  0  0  0  0  0
   -3.6234    0.7708    0.5270 H   0  0  0  0  0  0  0  0  0  0  0  0
   -3.6019   -0.9092   -0.1116 H   0  0  0  0  0  0  0  0  0  0  0  0
   -3.3657    0.4843   -1.2401 H   0  0  0  0  0  0  0  0  0  0  0  0
   -1.4598   -1.9694   -0.7895 H   0  0  0  0  0  0  0  0  0  0  0  0
    0.9826   -2.0425   -0.5101 H   0  0  0  0  0  0  0  0  0  0  0  0
    0.9311    1.9848    1.0202 H   0  0  0  0  0  0  0  0  0  0  0  0
   -1.5111    2.0612    0.7422 H   0  0  0  0  0  0  0  0  0  0  0  0
    3.3003   -0.1552   -1.6387 H   0  0  0  0  0  0  0  0  0  0  0  0
    6.1655    3.2701    0.8781 H   0  0  0  0  0  0  0  0  0  0  0  0
    7.9091    2.9319    0.5168 H   0  0  0  0  0  0  0  0  0  0  0  0
    6.9269    3.8589   -0.6571 H   0  0  0  0  0  0  0  0  0  0  0  0
    6.3813    0.8777    1.3433 H   0  0  0  0  0  0  0  0  0  0  0  0
    7.7602    0.3319    0.3273 H   0  0  0  0  0  0  0  0  0  0  0  0
    6.1107   -1.4502    0.4826 H   0  0  0  0  0  0  0  0  0  0  0  0
    6.1876   -0.8655   -1.1879 H   0  0  0  0  0  0  0  0  0  0  0  0
    3.1252    1.2791   -0.8780 H   0  0  0  0  0  0  0  0  0  0  0  0
    4.0330    1.6665    0.6257 H   0  0  0  0  0  0  0  0  0  0  0  0
    5.1948    1.3890   -2.2101 H   0  0  0  0  0  0  0  0  0  0  0  0
    4.8582    2.9236   -1.3750 H   0  0  0  0  0  0  0  0  0  0  0  0
    4.5794   -2.9713    0.8153 H   0  0  0  0  0  0  0  0  0  0  0  0
    2.8435   -3.0420    1.2070 H   0  0  0  0  0  0  0  0  0  0  0  0
    3.3634   -2.7393   -0.4921 H   0  0  0  0  0  0  0  0  0  0  0  0
    3.3646   -1.2143    3.0006 H   0  0  0  0  0  0  0  0  0  0  0  0
    5.0601   -1.0595    2.4574 H   0  0  0  0  0  0  0  0  0  0  0  0
    3.9911    0.3866    2.4920 H   0  0  0  0  0  0  0  0  0  0  0  0
   -0.1445   -2.4672   -0.4961 H   0  0  0  0  0  0  0  0  0  0  0  0
   -1.8957   -5.5601    0.8900 H   0  0  0  0  0  0  0  0  0  0  0  0
    0.2511   -6.1791    0.0854 H   0  0  0  0  0  0  0  0  0  0  0  0
    0.7545   -4.4097   -0.1147 H   0  0  0  0  0  0  0  0  0  0  0  0
   -3.4601   -1.2822   -0.1070 H   0  0  0  0  0  0  0  0  0  0  0  0
   -5.4836   -0.5848    0.5352 H   0  0  0  0  0  0  0  0  0  0  0  0
   -7.9333   -0.7641    0.4734 H   0  0  0  0  0  0  0  0  0  0  0  0
  -10.0389   -0.2695   -0.7128 H   0  0  0  0  0  0  0  0  0  0  0  0
   -5.8694    2.0661   -2.0433 H   0  0  0  0  0  0  0  0  0  0  0  0
   -4.0047    4.5485    0.5888 H   0  0  0  0  0  0  0  0  0  0  0  0
   -0.0142    2.1832    0.7770 H   0  0  0  0  0  0  0  0  0  0  0  0
  1  2  1  0
  2  3  2  0
  3  4  1  0
  4  5  2  0
  5  6  1  0
  6  7  2  0
  5  8  1  0
  8  9  1  0
  8 10  2  0
  8 11  2  0
 12 13  1  0
 13 14  2  0
 14 15  1  0
 15 16  2  0
 16 17  1  0
 17 18  2  0
 16 19  1  0
 19 20  1  0
 19 21  2  0
 19 22  2  0
 23 24  1  0
 24 25  1  0
 25 26  1  0
 26 27  1  0
 27 28  1  0
 28 29  1  0
 27 30  1  0
 30 31  1  0
 30 32  1  0
 30 33  1  0
 33 34  3  0
 34 35  1  0
 35 36  2  0
 36 37  1  0
 37 38  1  0
 38 39  2  0
 38 40  1  0
 40 41  2  3
 36 42  1  0
 42 43  2  0
 43 44  1  0
 44 45  1  0
 45 46  1  0
 46 47  2  0
 47 48  1  0
 48 49  2  0
 49 50  1  0
 49 51  1  0
 51 52  1  0
 51 53  2  0
 44 54  2  0
 54 55  1  0
 55 56  2  0
 56 57  1  0
 57 58  2  0
  7  2  1  0
 18 13  1  0
 29 24  1  0
 58 35  1  0
 57 43  1  0
 53 46  1  0
  1 59  1  0
  1 60  1  0
  1 61  1  0
  3 62  1  0
  4 63  1  0
  6 64  1  0
  7 65  1  0
  9 66  1  0
 12 67  1  0
 12 68  1  0
 12 69  1  0
 14 70  1  0
 15 71  1  0
 17 72  1  0
 18 73  1  0
 20 74  1  0
 23 75  1  0
 23 76  1  0
 23 77  1  0
 25 78  1  0
 25 79  1  0
 26 80  1  0
 26 81  1  0
 28 82  1  0
 28 83  1  0
 29 84  1  0
 29 85  1  0
 31 86  1  0
 31 87  1  0
 31 88  1  0
 32 89  1  0
 32 90  1  0
 32 91  1  0
 37 92  1  0
 40 93  1  0
 41 94  1  0
 41 95  1  0
 42 96  1  0
 45 97  1  0
 47 98  1  0
 48 99  1  0
 53100  1  0
 55101  1  0
 58102  1  0
M  END
$$$$
