
     RDKit          3D

 19 18  0  0  0  0  0  0  0  0999 V2000
   -1.5453   -1.0382    0.7506 N   0  0  0  0  0  0  0  0  0  0  0  0
   -1.0233    0.2793    0.3786 C   0  0  1  0  0  0  0  0  0  0  0  0
    0.2265    0.1365   -0.5085 C   0  0  0  0  0  0  0  0  0  0  0  0
    1.3824   -0.5395    0.2392 C   0  0  0  0  0  0  0  0  0  0  0  0
    2.5917   -0.6271   -0.6370 C   0  0  0  0  0  0  0  0  0  0  0  0
    3.5030    0.4238   -0.6672 O   0  0  0  0  0  0  0  0  0  0  0  0
    2.7644   -1.6326   -1.3766 O   0  0  0  0  0  0  0  0  0  0  0  0
   -2.0795    1.0837   -0.3325 C   0  0  0  0  0  0  0  0  0  0  0  0
   -2.5991    0.6389   -1.5451 O   0  0  0  0  0  0  0  0  0  0  0  0
   -2.4974    2.1606    0.1711 O   0  0  0  0  0  0  0  0  0  0  0  0
   -2.3639   -0.9062    1.3888 H   0  0  0  0  0  0  0  0  0  0  0  0
   -1.8910   -1.5328   -0.1045 H   0  0  0  0  0  0  0  0  0  0  0  0
   -0.7323    0.8188    1.3084 H   0  0  0  0  0  0  0  0  0  0  0  0
    0.5553    1.1485   -0.8360 H   0  0  0  0  0  0  0  0  0  0  0  0
   -0.0232   -0.4555   -1.4174 H   0  0  0  0  0  0  0  0  0  0  0  0
    1.0863   -1.5626    0.5575 H   0  0  0  0  0  0  0  0  0  0  0  0
    1.6374    0.0464    1.1487 H   0  0  0  0  0  0  0  0  0  0  0  0
    4.3183    0.3871   -1.2673 H   0  0  0  0  0  0  0  0  0  0  0  0
   -3.3104    1.1711   -2.0320 H   0  0  0  0  0  0  0  0  0  0  0  0
  1  2  1  0
  2  3  1  0
  3  4  1  0
  4  5  1  0
  5  6  1  0
  5  7  2  0
  2  8  1  0
  8  9  1  0
  8 10  2  0
  1 11  1  0
  1 12  1  0
  2 13  1  1
  3 14  1  0
  3 15  1  0
  4 16  1  0
  4 17  1  0
  6 18  1  0
  9 19  1  0
M  END
$$$$
