
     RDKit          3D

 53 55  0  0  0  0  0  0  0  0999 V2000
    6.6288    1.1217   -1.1277 C   0  0  0  0  0  0  0  0  0  0  0  0
    5.9307    2.4385   -0.7954 C   0  0  0  0  0  0  0  0  0  0  0  0
    5.3106    2.4417    0.6125 C   0  0  0  0  0  0  0  0  0  0  0  0
    4.1428    1.4774    0.7368 C   0  0  0  0  0  0  0  0  0  0  0  0
    2.9833    1.7630   -0.0062 C   0  0  0  0  0  0  0  0  0  0  0  0
    1.8767    0.9183    0.0334 C   0  0  0  0  0  0  0  0  0  0  0  0
    1.8999   -0.2410    0.8171 C   0  0  0  0  0  0  0  0  0  0  0  0
    0.7607   -1.1154    0.8918 N   0  0  0  0  0  0  0  0  0  0  0  0
   -0.1053   -1.4005   -0.2200 C   0  0  0  0  0  0  0  0  0  0  0  0
    0.2222   -1.0541   -1.3876 O   0  0  0  0  0  0  0  0  0  0  0  0
   -1.3582   -2.1581   -0.0155 C   0  0  0  0  0  0  0  0  0  0  0  0
   -1.3037   -3.3611    0.7097 C   0  0  0  0  0  0  0  0  0  0  0  0
   -2.4467   -4.1415    0.8787 C   0  0  0  0  0  0  0  0  0  0  0  0
   -3.6570   -3.7347    0.3231 C   0  0  0  0  0  0  0  0  0  0  0  0
   -3.7334   -2.5401   -0.3943 C   0  0  0  0  0  0  0  0  0  0  0  0
   -2.5939   -1.7264   -0.5674 C   0  0  0  0  0  0  0  0  0  0  0  0
   -2.6923   -0.4535   -1.2470 N   0  0  0  0  0  0  0  0  0  0  0  0
   -3.8724    0.0057   -1.9820 C   0  0  0  0  0  0  0  0  0  0  0  0
   -4.9182    0.5370   -1.0368 C   0  0  0  0  0  0  0  0  0  0  0  0
   -6.2467    0.0906   -1.1111 C   0  0  0  0  0  0  0  0  0  0  0  0
   -7.1890    0.5902   -0.2648 N   0  0  0  0  0  0  0  0  0  0  0  0
   -6.8809    1.5377    0.6642 C   0  0  0  0  0  0  0  0  0  0  0  0
   -7.7743    1.9805    1.4344 O   0  0  0  0  0  0  0  0  0  0  0  0
   -5.5739    2.0224    0.7623 C   0  0  0  0  0  0  0  0  0  0  0  0
   -4.5928    1.5240   -0.0954 C   0  0  0  0  0  0  0  0  0  0  0  0
    3.0279   -0.5148    1.5997 C   0  0  0  0  0  0  0  0  0  0  0  0
    4.1616    0.3254    1.5759 C   0  0  0  0  0  0  0  0  0  0  0  0
    5.3438   -0.0005    2.4720 C   0  0  0  0  0  0  0  0  0  0  0  0
    5.5376    1.0266    3.3781 F   0  0  0  0  0  0  0  0  0  0  0  0
    5.1434   -1.1674    3.1901 F   0  0  0  0  0  0  0  0  0  0  0  0
    6.4848   -0.1661    1.7107 F   0  0  0  0  0  0  0  0  0  0  0  0
    7.4680    0.9433   -0.4232 H   0  0  0  0  0  0  0  0  0  0  0  0
    5.9125    0.2746   -1.0775 H   0  0  0  0  0  0  0  0  0  0  0  0
    7.0413    1.1719   -2.1573 H   0  0  0  0  0  0  0  0  0  0  0  0
    5.1543    2.6457   -1.5625 H   0  0  0  0  0  0  0  0  0  0  0  0
    6.6800    3.2574   -0.8548 H   0  0  0  0  0  0  0  0  0  0  0  0
    4.9364    3.4668    0.8247 H   0  0  0  0  0  0  0  0  0  0  0  0
    6.1089    2.2560    1.3559 H   0  0  0  0  0  0  0  0  0  0  0  0
    2.9319    2.6551   -0.6184 H   0  0  0  0  0  0  0  0  0  0  0  0
    0.9933    1.1890   -0.5296 H   0  0  0  0  0  0  0  0  0  0  0  0
    0.5855   -1.6078    1.7967 H   0  0  0  0  0  0  0  0  0  0  0  0
   -0.3670   -3.7127    1.1244 H   0  0  0  0  0  0  0  0  0  0  0  0
   -2.3912   -5.0696    1.4329 H   0  0  0  0  0  0  0  0  0  0  0  0
   -4.5416   -4.3451    0.4518 H   0  0  0  0  0  0  0  0  0  0  0  0
   -4.6930   -2.2558   -0.7981 H   0  0  0  0  0  0  0  0  0  0  0  0
   -1.9028    0.2266   -1.1837 H   0  0  0  0  0  0  0  0  0  0  0  0
   -4.2638   -0.8158   -2.6203 H   0  0  0  0  0  0  0  0  0  0  0  0
   -3.5763    0.8292   -2.6672 H   0  0  0  0  0  0  0  0  0  0  0  0
   -6.5310   -0.6579   -1.8408 H   0  0  0  0  0  0  0  0  0  0  0  0
   -8.1697    0.2361   -0.3359 H   0  0  0  0  0  0  0  0  0  0  0  0
   -5.3200    2.7800    1.4935 H   0  0  0  0  0  0  0  0  0  0  0  0
   -3.5817    1.9052   -0.0250 H   0  0  0  0  0  0  0  0  0  0  0  0
    3.0100   -1.3979    2.2252 H   0  0  0  0  0  0  0  0  0  0  0  0
  1  2  1  0
  2  3  1  0
  3  4  1  0
  4  5  2  0
  5  6  1  0
  6  7  2  0
  7  8  1  0
  8  9  1  0
  9 10  2  0
  9 11  1  0
 11 12  2  0
 12 13  1  0
 13 14  2  0
 14 15  1  0
 15 16  2  0
 16 17  1  0
 17 18  1  0
 18 19  1  0
 19 20  2  0
 20 21  1  0
 21 22  1  0
 22 23  2  0
 22 24  1  0
 24 25  2  0
  7 26  1  0
 26 27  2  0
 27 28  1  0
 28 29  1  0
 28 30  1  0
 28 31  1  0
 27  4  1  0
 16 11  1  0
 25 19  1  0
  1 32  1  0
  1 33  1  0
  1 34  1  0
  2 35  1  0
  2 36  1  0
  3 37  1  0
  3 38  1  0
  5 39  1  0
  6 40  1  0
  8 41  1  0
 12 42  1  0
 13 43  1  0
 14 44  1  0
 15 45  1  0
 17 46  1  0
 18 47  1  0
 18 48  1  0
 20 49  1  0
 21 50  1  0
 24 51  1  0
 25 52  1  0
 26 53  1  0
M  END
$$$$
