
     RDKit          3D

 29 29  0  0  0  0  0  0  0  0999 V2000
   -3.9266    1.6013   -0.9802 C   0  0  0  0  0  0  0  0  0  0  0  0
   -2.5384    1.1311   -0.6661 C   0  0  0  0  0  0  0  0  0  0  0  0
   -1.5045    1.6286   -1.3907 N   0  0  0  0  0  0  0  0  0  0  0  0
   -0.2207    1.2481   -1.1812 C   0  0  0  0  0  0  0  0  0  0  0  0
    0.0943    0.2960   -0.1956 C   0  0  0  0  0  0  0  0  0  0  0  0
    1.5378   -0.1136    0.0273 C   0  0  0  0  0  0  0  0  0  0  0  0
    2.3256    0.1672   -1.1082 O   0  0  0  0  0  0  0  0  0  0  0  0
    3.9398   -0.2706   -0.7718 P   0  0  0  0  0  5  0  0  0  0  0  0
    4.5016    0.5591    0.5930 O   0  0  0  0  0  0  0  0  0  0  0  0
    4.9033    0.1351   -2.1020 O   0  0  0  0  0  0  0  0  0  0  0  0
    4.0331   -1.7609   -0.5301 O   0  0  0  0  0  0  0  0  0  0  0  0
   -0.9565   -0.1992    0.6218 C   0  0  0  0  0  0  0  0  0  0  0  0
   -0.7002   -1.1813    1.7476 C   0  0  0  0  0  0  0  0  0  0  0  0
   -0.9449   -2.5449    1.2887 N   0  0  0  0  0  0  0  0  0  0  0  0
   -2.2846    0.2005    0.3607 C   0  0  0  0  0  0  0  0  0  0  0  0
   -3.3254   -0.3336    1.1279 O   0  0  0  0  0  0  0  0  0  0  0  0
   -4.5588    0.7399   -1.2820 H   0  0  0  0  0  0  0  0  0  0  0  0
   -3.9112    2.3323   -1.8165 H   0  0  0  0  0  0  0  0  0  0  0  0
   -4.3682    2.0981   -0.0909 H   0  0  0  0  0  0  0  0  0  0  0  0
    0.5517    1.6937   -1.7935 H   0  0  0  0  0  0  0  0  0  0  0  0
    1.5721   -1.2060    0.2305 H   0  0  0  0  0  0  0  0  0  0  0  0
    1.9088    0.4475    0.9141 H   0  0  0  0  0  0  0  0  0  0  0  0
    4.4115    1.5172    0.3587 H   0  0  0  0  0  0  0  0  0  0  0  0
    5.8294   -0.0657   -1.8140 H   0  0  0  0  0  0  0  0  0  0  0  0
    0.3288   -1.0906    2.1560 H   0  0  0  0  0  0  0  0  0  0  0  0
   -1.3767   -0.9573    2.6011 H   0  0  0  0  0  0  0  0  0  0  0  0
   -0.8209   -3.1838    2.1072 H   0  0  0  0  0  0  0  0  0  0  0  0
   -0.2028   -2.7998    0.5976 H   0  0  0  0  0  0  0  0  0  0  0  0
   -4.2975   -0.0884    0.9906 H   0  0  0  0  0  0  0  0  0  0  0  0
  1  2  1  0
  2  3  2  0
  3  4  1  0
  4  5  2  0
  5  6  1  0
  6  7  1  0
  7  8  1  0
  8  9  1  0
  8 10  1  0
  8 11  2  0
  5 12  1  0
 12 13  1  0
 13 14  1  0
 12 15  2  0
 15 16  1  0
 15  2  1  0
  1 17  1  0
  1 18  1  0
  1 19  1  0
  4 20  1  0
  6 21  1  0
  6 22  1  0
  9 23  1  0
 10 24  1  0
 13 25  1  0
 13 26  1  0
 14 27  1  0
 14 28  1  0
 16 29  1  0
M  END
$$$$
