
     RDKit          3D

165168  0  0  0  0  0  0  0  0999 V2000
   11.1567    2.8026    3.6966 C   0  0  0  0  0  0  0  0  0  0  0  0
   10.6970    2.8089    2.2370 C   0  0  0  0  0  0  0  0  0  0  0  0
    9.7754    1.6162    1.8818 C   0  0  0  0  0  0  0  0  0  0  0  0
    8.3920    1.7739    2.5406 C   0  0  0  0  0  0  0  0  0  0  0  0
    9.6605    1.5046    0.3377 C   0  0  0  0  0  0  0  0  0  0  0  0
    8.7917    0.3349   -0.1968 C   0  0  0  0  0  0  0  0  0  0  0  0
    9.3351   -1.0298    0.2633 C   0  0  0  0  0  0  0  0  0  0  0  0
    8.7207    0.4116   -1.7423 C   0  0  0  0  0  0  0  0  0  0  0  0
    7.6231   -0.4955   -2.3314 C   0  0  0  0  0  0  0  0  0  0  0  0
    7.3036   -0.1770   -3.8033 C   0  0  0  0  0  0  0  0  0  0  0  0
    6.5662    1.1576   -4.0414 C   0  0  0  0  0  0  0  0  0  0  0  0
    5.2174    1.2655   -3.3000 C   0  0  0  0  0  0  0  0  0  0  0  0
    5.3203    2.1407   -2.0370 C   0  0  0  0  0  0  0  0  0  0  0  0
    4.0699    2.0362   -1.1527 C   0  0  0  0  0  0  0  0  0  0  0  0
    4.1028    0.7927   -0.2534 C   0  0  0  0  0  0  0  0  0  0  0  0
    2.8471    0.7089    0.5577 C   0  0  0  0  0  0  0  0  0  0  0  0
    2.8589    1.0675    1.7665 O   0  0  0  0  0  0  0  0  0  0  0  0
    1.6299    0.2692   -0.0591 N   0  0  0  0  0  0  0  0  0  0  0  0
    0.3434    0.2952    0.6461 C   0  0  1  0  0  0  0  0  0  0  0  0
   -0.8680    0.1545   -0.3057 C   0  0  0  0  0  0  0  0  0  0  0  0
   -0.8704    1.1039   -1.5385 C   0  0  1  0  0  0  0  0  0  0  0  0
   -2.0649    0.9512   -2.2655 O   0  0  0  0  0  0  0  0  0  0  0  0
   -0.5938    2.6003   -1.1992 C   0  0  1  0  0  0  0  0  0  0  0  0
   -0.6003    3.4728   -2.3936 N   0  0  0  0  0  0  0  0  0  0  0  0
    0.7111    3.5106   -3.0578 C   0  0  0  0  0  0  0  0  0  0  0  0
    0.6835    4.4750   -4.2453 C   0  0  0  0  0  0  0  0  0  0  0  0
    0.3536    5.8264   -3.8018 N   0  0  0  0  0  0  0  0  0  0  0  0
   -1.5301    3.1118   -0.1914 N   0  0  0  0  0  0  0  0  0  0  0  0
   -2.8778    3.5448   -0.4486 C   0  0  0  0  0  0  0  0  0  0  0  0
   -3.3447    3.5326   -1.6190 O   0  0  0  0  0  0  0  0  0  0  0  0
   -3.7328    4.0840    0.6698 C   0  0  2  0  0  0  0  0  0  0  0  0
   -3.3159    5.5154    1.0444 C   0  0  1  0  0  0  0  0  0  0  0  0
   -4.4530    6.2935    1.3175 O   0  0  0  0  0  0  0  0  0  0  0  0
   -2.4850    5.3767    2.3210 C   0  0  0  0  0  0  0  0  0  0  0  0
   -2.8776    4.0400    2.9363 C   0  0  0  0  0  0  0  0  0  0  0  0
   -3.5510    3.2956    1.8839 N   0  0  0  0  0  0  0  0  0  0  0  0
   -4.0199    1.9467    2.0891 C   0  0  0  0  0  0  0  0  0  0  0  0
   -3.6305    1.3142    3.1093 O   0  0  0  0  0  0  0  0  0  0  0  0
   -5.0477    1.3018    1.1783 C   0  0  1  0  0  0  0  0  0  0  0  0
   -4.7072   -0.1129    0.9737 N   0  0  0  0  0  0  0  0  0  0  0  0
   -5.0489   -0.8157   -0.2337 C   0  0  0  0  0  0  0  0  0  0  0  0
   -5.2012   -0.1772   -1.3103 O   0  0  0  0  0  0  0  0  0  0  0  0
   -5.3053   -2.3050   -0.2248 C   0  0  1  0  0  0  0  0  0  0  0  0
   -4.1607   -3.0191    0.3547 N   0  0  0  0  0  0  0  0  0  0  0  0
   -3.4380   -4.0440   -0.3476 C   0  0  0  0  0  0  0  0  0  0  0  0
   -3.6284   -4.2240   -1.5807 O   0  0  0  0  0  0  0  0  0  0  0  0
   -2.4150   -4.8958    0.3651 C   0  0  2  0  0  0  0  0  0  0  0  0
   -2.9961   -5.5918    1.5979 C   0  0  0  0  0  0  0  0  0  0  0  0
   -2.4577   -4.8215    2.8087 C   0  0  1  0  0  0  0  0  0  0  0  0
   -2.0827   -5.6823    3.8566 O   0  0  0  0  0  0  0  0  0  0  0  0
   -1.2806   -3.9819    2.3008 C   0  0  0  0  0  0  0  0  0  0  0  0
   -1.3137   -4.0698    0.8468 N   0  0  0  0  0  0  0  0  0  0  0  0
   -0.3518   -3.4937   -0.0703 C   0  0  0  0  0  0  0  0  0  0  0  0
   -0.5697   -3.5931   -1.3094 O   0  0  0  0  0  0  0  0  0  0  0  0
    0.9521   -2.8293    0.3419 C   0  0  1  0  0  0  0  0  0  0  0  0
    0.8552   -2.0758    1.5995 N   0  0  0  0  0  0  0  0  0  0  0  0
    0.2966   -0.7543    1.7374 C   0  0  0  0  0  0  0  0  0  0  0  0
   -0.2256   -0.4367    2.8399 O   0  0  0  0  0  0  0  0  0  0  0  0
    2.1562   -3.8106    0.3463 C   0  0  1  0  0  0  0  0  0  0  0  0
    1.9900   -5.0080    1.2865 C   0  0  0  0  0  0  0  0  0  0  0  0
    2.3807   -4.2961   -0.9534 O   0  0  0  0  0  0  0  0  0  0  0  0
   -6.6137   -2.6282    0.5438 C   0  0  2  0  0  0  0  0  0  0  0  0
   -6.4540   -2.3027    1.9030 O   0  0  0  0  0  0  0  0  0  0  0  0
   -7.0326   -4.1148    0.4270 C   0  0  1  0  0  0  0  0  0  0  0  0
   -8.2163   -4.3187    1.1552 O   0  0  0  0  0  0  0  0  0  0  0  0
   -7.2534   -4.5438   -1.0104 C   0  0  0  0  0  0  0  0  0  0  0  0
   -6.4695   -5.5665   -1.5714 C   0  0  0  0  0  0  0  0  0  0  0  0
   -6.6666   -5.9625   -2.8973 C   0  0  0  0  0  0  0  0  0  0  0  0
   -7.6577   -5.3499   -3.6751 C   0  0  0  0  0  0  0  0  0  0  0  0
   -7.8621   -5.7353   -4.9980 O   0  0  0  0  0  0  0  0  0  0  0  0
   -8.4525   -4.3434   -3.1183 C   0  0  0  0  0  0  0  0  0  0  0  0
   -8.2569   -3.9445   -1.7928 C   0  0  0  0  0  0  0  0  0  0  0  0
   -6.4672    1.4047    1.7992 C   0  0  2  0  0  0  0  0  0  0  0  0
   -7.3948    0.6827    1.0264 O   0  0  0  0  0  0  0  0  0  0  0  0
   -6.9414    2.8684    1.9662 C   0  0  0  0  0  0  0  0  0  0  0  0
   -8.3166    2.9683    2.6395 C   0  0  0  0  0  0  0  0  0  0  0  0
   -8.2675    2.4497    4.0039 N   0  0  0  0  0  0  0  0  0  0  0  0
   10.3144    3.0286    4.3815 H   0  0  0  0  0  0  0  0  0  0  0  0
   11.9304    3.5859    3.8415 H   0  0  0  0  0  0  0  0  0  0  0  0
   11.5996    1.8195    3.9628 H   0  0  0  0  0  0  0  0  0  0  0  0
   11.6119    2.7684    1.6057 H   0  0  0  0  0  0  0  0  0  0  0  0
   10.1831    3.7705    2.0171 H   0  0  0  0  0  0  0  0  0  0  0  0
   10.2536    0.6933    2.2727 H   0  0  0  0  0  0  0  0  0  0  0  0
    7.8480    2.6407    2.1083 H   0  0  0  0  0  0  0  0  0  0  0  0
    7.7847    0.8565    2.4027 H   0  0  0  0  0  0  0  0  0  0  0  0
    8.4849    1.9194    3.6352 H   0  0  0  0  0  0  0  0  0  0  0  0
    9.2433    2.4627   -0.0458 H   0  0  0  0  0  0  0  0  0  0  0  0
   10.6823    1.4008   -0.0912 H   0  0  0  0  0  0  0  0  0  0  0  0
    7.7582    0.4549    0.1913 H   0  0  0  0  0  0  0  0  0  0  0  0
    9.2721   -1.1263    1.3660 H   0  0  0  0  0  0  0  0  0  0  0  0
   10.3915   -1.1586   -0.0553 H   0  0  0  0  0  0  0  0  0  0  0  0
    8.7303   -1.8593   -0.1547 H   0  0  0  0  0  0  0  0  0  0  0  0
    8.5165    1.4623   -2.0322 H   0  0  0  0  0  0  0  0  0  0  0  0
    9.7041    0.1379   -2.1843 H   0  0  0  0  0  0  0  0  0  0  0  0
    6.6978   -0.4450   -1.7214 H   0  0  0  0  0  0  0  0  0  0  0  0
    7.9748   -1.5481   -2.2908 H   0  0  0  0  0  0  0  0  0  0  0  0
    8.2487   -0.1748   -4.3889 H   0  0  0  0  0  0  0  0  0  0  0  0
    6.6753   -1.0001   -4.2091 H   0  0  0  0  0  0  0  0  0  0  0  0
    7.2256    2.0198   -3.8065 H   0  0  0  0  0  0  0  0  0  0  0  0
    6.3643    1.2250   -5.1329 H   0  0  0  0  0  0  0  0  0  0  0  0
    4.8283    0.2538   -3.0588 H   0  0  0  0  0  0  0  0  0  0  0  0
    4.4716    1.7342   -3.9795 H   0  0  0  0  0  0  0  0  0  0  0  0
    6.2178    1.8821   -1.4390 H   0  0  0  0  0  0  0  0  0  0  0  0
    5.4397    3.1990   -2.3572 H   0  0  0  0  0  0  0  0  0  0  0  0
    3.1580    2.0278   -1.7893 H   0  0  0  0  0  0  0  0  0  0  0  0
    4.0196    2.9392   -0.5050 H   0  0  0  0  0  0  0  0  0  0  0  0
    4.1923   -0.1297   -0.8645 H   0  0  0  0  0  0  0  0  0  0  0  0
    4.9838    0.8407    0.4240 H   0  0  0  0  0  0  0  0  0  0  0  0
    1.6740   -0.0122   -1.0634 H   0  0  0  0  0  0  0  0  0  0  0  0
    0.2509    1.2852    1.1435 H   0  0  0  0  0  0  0  0  0  0  0  0
   -0.9298   -0.8852   -0.6840 H   0  0  0  0  0  0  0  0  0  0  0  0
   -1.7898    0.3312    0.2920 H   0  0  0  0  0  0  0  0  0  0  0  0
   -0.0587    0.7681   -2.2145 H   0  0  0  0  0  0  0  0  0  0  0  0
   -2.8226    1.0376   -1.6327 H   0  0  0  0  0  0  0  0  0  0  0  0
    0.4178    2.6443   -0.7365 H   0  0  0  0  0  0  0  0  0  0  0  0
   -1.3093    3.1376   -3.0859 H   0  0  0  0  0  0  0  0  0  0  0  0
    0.9894    2.4989   -3.4260 H   0  0  0  0  0  0  0  0  0  0  0  0
    1.4927    3.8561   -2.3455 H   0  0  0  0  0  0  0  0  0  0  0  0
    1.6782    4.4734   -4.7446 H   0  0  0  0  0  0  0  0  0  0  0  0
   -0.0740    4.1314   -4.9835 H   0  0  0  0  0  0  0  0  0  0  0  0
    1.1598    6.1942   -3.2459 H   0  0  0  0  0  0  0  0  0  0  0  0
    0.2793    6.4305   -4.6521 H   0  0  0  0  0  0  0  0  0  0  0  0
   -1.1541    3.2357    0.7746 H   0  0  0  0  0  0  0  0  0  0  0  0
   -4.7998    4.0753    0.3622 H   0  0  0  0  0  0  0  0  0  0  0  0
   -2.7069    6.0065    0.2480 H   0  0  0  0  0  0  0  0  0  0  0  0
   -4.8402    6.5472    0.4391 H   0  0  0  0  0  0  0  0  0  0  0  0
   -2.6638    6.2154    3.0290 H   0  0  0  0  0  0  0  0  0  0  0  0
   -1.4042    5.3611    2.0584 H   0  0  0  0  0  0  0  0  0  0  0  0
   -1.9758    3.4911    3.2851 H   0  0  0  0  0  0  0  0  0  0  0  0
   -3.5770    4.1955    3.7864 H   0  0  0  0  0  0  0  0  0  0  0  0
   -5.0467    1.8143    0.1956 H   0  0  0  0  0  0  0  0  0  0  0  0
   -4.4591   -0.6772    1.8161 H   0  0  0  0  0  0  0  0  0  0  0  0
   -5.4445   -2.6131   -1.2838 H   0  0  0  0  0  0  0  0  0  0  0  0
   -3.9027   -2.8262    1.3462 H   0  0  0  0  0  0  0  0  0  0  0  0
   -2.0216   -5.6705   -0.3317 H   0  0  0  0  0  0  0  0  0  0  0  0
   -2.6403   -6.6457    1.6186 H   0  0  0  0  0  0  0  0  0  0  0  0
   -4.1072   -5.6120    1.5988 H   0  0  0  0  0  0  0  0  0  0  0  0
   -3.2532   -4.1428    3.1864 H   0  0  0  0  0  0  0  0  0  0  0  0
   -1.3665   -6.2819    3.5187 H   0  0  0  0  0  0  0  0  0  0  0  0
   -0.3247   -4.3811    2.6881 H   0  0  0  0  0  0  0  0  0  0  0  0
   -1.4113   -2.9278    2.6221 H   0  0  0  0  0  0  0  0  0  0  0  0
    1.1879   -2.1138   -0.4640 H   0  0  0  0  0  0  0  0  0  0  0  0
    1.1150   -2.5568    2.4884 H   0  0  0  0  0  0  0  0  0  0  0  0
    3.0596   -3.2508    0.6868 H   0  0  0  0  0  0  0  0  0  0  0  0
    2.8643   -5.6845    1.1785 H   0  0  0  0  0  0  0  0  0  0  0  0
    1.9569   -4.6815    2.3452 H   0  0  0  0  0  0  0  0  0  0  0  0
    1.0769   -5.5878    1.0373 H   0  0  0  0  0  0  0  0  0  0  0  0
    2.8337   -3.5717   -1.4598 H   0  0  0  0  0  0  0  0  0  0  0  0
   -7.4238   -1.9978    0.1051 H   0  0  0  0  0  0  0  0  0  0  0  0
   -7.3518   -2.0707    2.2578 H   0  0  0  0  0  0  0  0  0  0  0  0
   -6.2237   -4.7269    0.8872 H   0  0  0  0  0  0  0  0  0  0  0  0
   -8.3089   -5.2991    1.2854 H   0  0  0  0  0  0  0  0  0  0  0  0
   -5.7024   -6.0567   -0.9849 H   0  0  0  0  0  0  0  0  0  0  0  0
   -6.0499   -6.7463   -3.3184 H   0  0  0  0  0  0  0  0  0  0  0  0
   -7.3032   -6.4618   -5.4301 H   0  0  0  0  0  0  0  0  0  0  0  0
   -9.2243   -3.8713   -3.7128 H   0  0  0  0  0  0  0  0  0  0  0  0
   -8.8894   -3.1704   -1.3775 H   0  0  0  0  0  0  0  0  0  0  0  0
   -6.4315    0.9311    2.8050 H   0  0  0  0  0  0  0  0  0  0  0  0
   -7.4241    1.1008    0.1261 H   0  0  0  0  0  0  0  0  0  0  0  0
   -6.2123    3.4437    2.5756 H   0  0  0  0  0  0  0  0  0  0  0  0
   -7.0043    3.3520    0.9677 H   0  0  0  0  0  0  0  0  0  0  0  0
   -8.6363    4.0342    2.6567 H   0  0  0  0  0  0  0  0  0  0  0  0
   -9.0687    2.3989    2.0512 H   0  0  0  0  0  0  0  0  0  0  0  0
   -7.6890    3.1024    4.5815 H   0  0  0  0  0  0  0  0  0  0  0  0
   -9.2371    2.4877    4.3935 H   0  0  0  0  0  0  0  0  0  0  0  0
  1  2  1  0
  2  3  1  0
  3  4  1  0
  3  5  1  0
  5  6  1  0
  6  7  1  0
  6  8  1  0
  8  9  1  0
  9 10  1  0
 10 11  1  0
 11 12  1  0
 12 13  1  0
 13 14  1  0
 14 15  1  0
 15 16  1  0
 16 17  2  0
 16 18  1  0
 18 19  1  0
 19 20  1  0
 20 21  1  0
 21 22  1  0
 21 23  1  0
 23 24  1  0
 24 25  1  0
 25 26  1  0
 26 27  1  0
 23 28  1  0
 28 29  1  0
 29 30  2  0
 29 31  1  0
 31 32  1  0
 32 33  1  0
 32 34  1  0
 34 35  1  0
 35 36  1  0
 36 37  1  0
 37 38  2  0
 37 39  1  0
 39 40  1  0
 40 41  1  0
 41 42  2  0
 41 43  1  0
 43 44  1  0
 44 45  1  0
 45 46  2  0
 45 47  1  0
 47 48  1  0
 48 49  1  0
 49 50  1  0
 49 51  1  0
 51 52  1  0
 52 53  1  0
 53 54  2  0
 53 55  1  0
 55 56  1  0
 56 57  1  0
 57 58  2  0
 55 59  1  0
 59 60  1  0
 59 61  1  0
 43 62  1  0
 62 63  1  0
 62 64  1  0
 64 65  1  0
 64 66  1  0
 66 67  2  0
 67 68  1  0
 68 69  2  0
 69 70  1  0
 69 71  1  0
 71 72  2  0
 39 73  1  0
 73 74  1  0
 73 75  1  0
 75 76  1  0
 76 77  1  0
 57 19  1  0
 72 66  1  0
 36 31  1  0
 52 47  1  0
  1 78  1  0
  1 79  1  0
  1 80  1  0
  2 81  1  0
  2 82  1  0
  3 83  1  0
  4 84  1  0
  4 85  1  0
  4 86  1  0
  5 87  1  0
  5 88  1  0
  6 89  1  0
  7 90  1  0
  7 91  1  0
  7 92  1  0
  8 93  1  0
  8 94  1  0
  9 95  1  0
  9 96  1  0
 10 97  1  0
 10 98  1  0
 11 99  1  0
 11100  1  0
 12101  1  0
 12102  1  0
 13103  1  0
 13104  1  0
 14105  1  0
 14106  1  0
 15107  1  0
 15108  1  0
 18109  1  0
 19110  1  1
 20111  1  0
 20112  1  0
 21113  1  6
 22114  1  0
 23115  1  1
 24116  1  0
 25117  1  0
 25118  1  0
 26119  1  0
 26120  1  0
 27121  1  0
 27122  1  0
 28123  1  0
 31124  1  6
 32125  1  6
 33126  1  0
 34127  1  0
 34128  1  0
 35129  1  0
 35130  1  0
 39131  1  6
 40132  1  0
 43133  1  6
 44134  1  0
 47135  1  6
 48136  1  0
 48137  1  0
 49138  1  1
 50139  1  0
 51140  1  0
 51141  1  0
 55142  1  6
 56143  1  0
 59144  1  1
 60145  1  0
 60146  1  0
 60147  1  0
 61148  1  0
 62149  1  6
 63150  1  0
 64151  1  1
 65152  1  0
 67153  1  0
 68154  1  0
 70155  1  0
 71156  1  0
 72157  1  0
 73158  1  1
 74159  1  0
 75160  1  0
 75161  1  0
 76162  1  0
 76163  1  0
 77164  1  0
 77165  1  0
M  END
$$$$
