
     RDKit          3D

 44 45  0  0  0  0  0  0  0  0999 V2000
    4.9477   -2.6314    0.5279 C   0  0  0  0  0  0  0  0  0  0  0  0
    3.6003   -2.5797    1.2294 C   0  0  0  0  0  0  0  0  0  0  0  0
    2.8945   -1.4150    0.8160 O   0  0  0  0  0  0  0  0  0  0  0  0
    1.6245   -1.0866    1.3001 C   0  0  0  0  0  0  0  0  0  0  0  0
    1.0468   -1.8565    2.1158 O   0  0  0  0  0  0  0  0  0  0  0  0
    0.9200    0.1329    0.8193 C   0  0  0  0  0  0  0  0  0  0  0  0
    1.5786    1.2519    0.4392 C   0  0  0  0  0  0  0  0  0  0  0  0
    3.0785    1.3788    0.5188 C   0  0  0  0  0  0  0  0  0  0  0  0
    0.8376    2.3794   -0.0457 N   0  0  0  0  0  0  0  0  0  0  0  0
   -0.5870    2.4747    0.0838 C   0  0  0  0  0  0  0  0  0  0  0  0
   -1.2289    3.8113   -0.1864 C   0  0  0  0  0  0  0  0  0  0  0  0
   -1.2988    1.3854    0.4542 C   0  0  0  0  0  0  0  0  0  0  0  0
   -0.5968    0.0563    0.7016 C   0  0  0  0  0  0  0  0  0  0  0  0
   -0.9705   -0.9278   -0.4007 C   0  0  0  0  0  0  0  0  0  0  0  0
   -1.6880   -2.1249   -0.1418 C   0  0  0  0  0  0  0  0  0  0  0  0
   -2.2032   -2.5600    1.4914 Cl  0  0  0  0  0  0  0  0  0  0  0  0
   -2.0020   -2.9941   -1.2055 C   0  0  0  0  0  0  0  0  0  0  0  0
   -2.8893   -4.4900   -0.9366 Cl  0  0  0  0  0  0  0  0  0  0  0  0
   -1.6097   -2.6806   -2.5092 C   0  0  0  0  0  0  0  0  0  0  0  0
   -0.9057   -1.5073   -2.7679 C   0  0  0  0  0  0  0  0  0  0  0  0
   -0.5881   -0.6379   -1.7258 C   0  0  0  0  0  0  0  0  0  0  0  0
   -2.7821    1.4010    0.5766 C   0  0  0  0  0  0  0  0  0  0  0  0
   -3.3447    0.6253    1.3975 O   0  0  0  0  0  0  0  0  0  0  0  0
   -3.5593    2.2239   -0.2450 O   0  0  0  0  0  0  0  0  0  0  0  0
   -4.9798    2.2531   -0.1805 C   0  0  0  0  0  0  0  0  0  0  0  0
    5.5035   -3.5374    0.8490 H   0  0  0  0  0  0  0  0  0  0  0  0
    5.5440   -1.7306    0.7861 H   0  0  0  0  0  0  0  0  0  0  0  0
    4.8009   -2.6683   -0.5724 H   0  0  0  0  0  0  0  0  0  0  0  0
    3.7597   -2.5514    2.3292 H   0  0  0  0  0  0  0  0  0  0  0  0
    3.0138   -3.4869    0.9675 H   0  0  0  0  0  0  0  0  0  0  0  0
    3.4504    1.0236    1.5032 H   0  0  0  0  0  0  0  0  0  0  0  0
    3.3892    2.4394    0.4151 H   0  0  0  0  0  0  0  0  0  0  0  0
    3.5510    0.8007   -0.3025 H   0  0  0  0  0  0  0  0  0  0  0  0
    1.3623    3.1966   -0.4314 H   0  0  0  0  0  0  0  0  0  0  0  0
   -0.4646    4.6158   -0.2137 H   0  0  0  0  0  0  0  0  0  0  0  0
   -1.9485    4.0706    0.6189 H   0  0  0  0  0  0  0  0  0  0  0  0
   -1.7424    3.7918   -1.1702 H   0  0  0  0  0  0  0  0  0  0  0  0
   -0.9559   -0.2921    1.6898 H   0  0  0  0  0  0  0  0  0  0  0  0
   -1.8511   -3.3489   -3.3261 H   0  0  0  0  0  0  0  0  0  0  0  0
   -0.6045   -1.2700   -3.7801 H   0  0  0  0  0  0  0  0  0  0  0  0
   -0.0399    0.2678   -1.9526 H   0  0  0  0  0  0  0  0  0  0  0  0
   -5.3077    2.5672    0.8330 H   0  0  0  0  0  0  0  0  0  0  0  0
   -5.3915    1.2485   -0.4146 H   0  0  0  0  0  0  0  0  0  0  0  0
   -5.3631    2.9813   -0.9243 H   0  0  0  0  0  0  0  0  0  0  0  0
  1  2  1  0
  2  3  1  0
  3  4  1  0
  4  5  2  0
  4  6  1  0
  6  7  2  0
  7  8  1  0
  7  9  1  0
  9 10  1  0
 10 11  1  0
 10 12  2  0
 12 13  1  0
 13 14  1  0
 14 15  2  0
 15 16  1  0
 15 17  1  0
 17 18  1  0
 17 19  2  0
 19 20  1  0
 20 21  2  0
 12 22  1  0
 22 23  2  0
 22 24  1  0
 24 25  1  0
 13  6  1  0
 21 14  1  0
  1 26  1  0
  1 27  1  0
  1 28  1  0
  2 29  1  0
  2 30  1  0
  8 31  1  0
  8 32  1  0
  8 33  1  0
  9 34  1  0
 11 35  1  0
 11 36  1  0
 11 37  1  0
 13 38  1  0
 19 39  1  0
 20 40  1  0
 21 41  1  0
 25 42  1  0
 25 43  1  0
 25 44  1  0
M  END
$$$$
