
     RDKit          3D

103103  0  0  0  0  0  0  0  0999 V2000
  -14.9777    1.6801   -2.5856 C   0  0  0  0  0  0  0  0  0  0  0  0
  -14.7088    2.9126   -1.7226 C   0  0  0  0  0  0  0  0  0  0  0  0
  -13.6310    2.6652   -0.6562 C   0  0  0  0  0  0  0  0  0  0  0  0
  -12.2296    2.4858   -1.2651 C   0  0  0  0  0  0  0  0  0  0  0  0
  -11.1095    2.5207   -0.2096 C   0  0  0  0  0  0  0  0  0  0  0  0
  -11.2016    1.4313    0.8746 C   0  0  0  0  0  0  0  0  0  0  0  0
  -11.0978    0.0077    0.3017 C   0  0  0  0  0  0  0  0  0  0  0  0
  -11.0858   -1.0759    1.3959 C   0  0  0  0  0  0  0  0  0  0  0  0
   -9.8064   -1.1071    2.2508 C   0  0  0  0  0  0  0  0  0  0  0  0
   -8.5719   -1.3656    1.4252 C   0  0  0  0  0  0  0  0  0  0  0  0
   -7.7123   -0.3105    1.0809 C   0  0  0  0  0  0  0  0  0  0  0  0
   -6.5840   -0.5473    0.2904 C   0  0  0  0  0  0  0  0  0  0  0  0
   -6.3005   -1.8471   -0.1707 C   0  0  0  0  0  0  0  0  0  0  0  0
   -5.1822   -2.1363   -0.9664 O   0  0  0  0  0  0  0  0  0  0  0  0
   -4.2241   -1.1701   -1.3906 C   0  0  0  0  0  0  0  0  0  0  0  0
   -3.1546   -1.8536   -2.2377 C   0  0  0  0  0  0  0  0  0  0  0  0
   -2.2336   -0.8982   -2.7317 O   0  0  0  0  0  0  0  0  0  0  0  0
   -1.1107   -0.7748   -1.8781 C   0  0  0  0  0  0  0  0  0  0  0  0
    0.0107   -1.7111   -2.3353 C   0  0  0  0  0  0  0  0  0  0  0  0
    1.1718   -1.5002   -1.5542 O   0  0  0  0  0  0  0  0  0  0  0  0
    1.2425   -2.4457   -0.5062 C   0  0  0  0  0  0  0  0  0  0  0  0
    2.4119   -2.0977    0.4119 C   0  0  0  0  0  0  0  0  0  0  0  0
    3.6246   -2.0639   -0.3187 O   0  0  0  0  0  0  0  0  0  0  0  0
    4.3022   -3.3055   -0.2548 C   0  0  0  0  0  0  0  0  0  0  0  0
    5.2805   -3.3317    0.9211 C   0  0  0  0  0  0  0  0  0  0  0  0
    6.2168   -2.2778    0.7913 O   0  0  0  0  0  0  0  0  0  0  0  0
    5.9989   -1.2888    1.7756 C   0  0  0  0  0  0  0  0  0  0  0  0
    6.8643   -0.0671    1.4761 C   0  0  0  0  0  0  0  0  0  0  0  0
    6.3978    0.5957    0.3141 O   0  0  0  0  0  0  0  0  0  0  0  0
    7.1410    0.2324   -0.8359 C   0  0  0  0  0  0  0  0  0  0  0  0
    8.1509    1.3285   -1.1855 C   0  0  0  0  0  0  0  0  0  0  0  0
    9.0784    1.5169   -0.1326 O   0  0  0  0  0  0  0  0  0  0  0  0
   10.2247    0.7021   -0.3006 C   0  0  0  0  0  0  0  0  0  0  0  0
   11.3333    1.4751   -1.0203 C   0  0  0  0  0  0  0  0  0  0  0  0
   11.6109    2.6906   -0.3479 O   0  0  0  0  0  0  0  0  0  0  0  0
   12.6699    2.5378    0.5791 C   0  0  0  0  0  0  0  0  0  0  0  0
   14.0059    2.8983   -0.0757 C   0  0  0  0  0  0  0  0  0  0  0  0
   15.0457    2.8611    0.8836 O   0  0  0  0  0  0  0  0  0  0  0  0
   15.7179    1.6189    0.8372 C   0  0  0  0  0  0  0  0  0  0  0  0
   16.7149    1.5402    1.9860 C   0  0  0  0  0  0  0  0  0  0  0  0
   16.0354    1.6048    3.2089 O   0  0  0  0  0  0  0  0  0  0  0  0
   -7.1619   -2.8958    0.1715 C   0  0  0  0  0  0  0  0  0  0  0  0
   -8.2908   -2.6594    0.9609 C   0  0  0  0  0  0  0  0  0  0  0  0
  -15.2246    0.8050   -1.9476 H   0  0  0  0  0  0  0  0  0  0  0  0
  -15.8383    1.8811   -3.2579 H   0  0  0  0  0  0  0  0  0  0  0  0
  -14.0956    1.4418   -3.2153 H   0  0  0  0  0  0  0  0  0  0  0  0
  -14.4165    3.7660   -2.3724 H   0  0  0  0  0  0  0  0  0  0  0  0
  -15.6541    3.1912   -1.2084 H   0  0  0  0  0  0  0  0  0  0  0  0
  -13.6188    3.5401    0.0300 H   0  0  0  0  0  0  0  0  0  0  0  0
  -13.9072    1.7686   -0.0608 H   0  0  0  0  0  0  0  0  0  0  0  0
  -12.0391    3.3130   -1.9834 H   0  0  0  0  0  0  0  0  0  0  0  0
  -12.1761    1.5384   -1.8397 H   0  0  0  0  0  0  0  0  0  0  0  0
  -11.1176    3.5151    0.2879 H   0  0  0  0  0  0  0  0  0  0  0  0
  -10.1306    2.4281   -0.7290 H   0  0  0  0  0  0  0  0  0  0  0  0
  -10.3643    1.6077    1.5804 H   0  0  0  0  0  0  0  0  0  0  0  0
  -12.1429    1.5413    1.4532 H   0  0  0  0  0  0  0  0  0  0  0  0
  -11.9834   -0.1867   -0.3393 H   0  0  0  0  0  0  0  0  0  0  0  0
  -10.1970   -0.0834   -0.3418 H   0  0  0  0  0  0  0  0  0  0  0  0
  -11.2127   -2.0680    0.9099 H   0  0  0  0  0  0  0  0  0  0  0  0
  -11.9618   -0.9303    2.0648 H   0  0  0  0  0  0  0  0  0  0  0  0
   -9.9083   -1.9185    3.0040 H   0  0  0  0  0  0  0  0  0  0  0  0
   -9.7036   -0.1661    2.8309 H   0  0  0  0  0  0  0  0  0  0  0  0
   -7.9184    0.6973    1.4193 H   0  0  0  0  0  0  0  0  0  0  0  0
   -5.9417    0.2863    0.0418 H   0  0  0  0  0  0  0  0  0  0  0  0
   -4.7271   -0.3870   -1.9987 H   0  0  0  0  0  0  0  0  0  0  0  0
   -3.7515   -0.7001   -0.5016 H   0  0  0  0  0  0  0  0  0  0  0  0
   -3.6519   -2.3300   -3.1091 H   0  0  0  0  0  0  0  0  0  0  0  0
   -2.6727   -2.6778   -1.6606 H   0  0  0  0  0  0  0  0  0  0  0  0
   -1.3550   -0.9453   -0.8040 H   0  0  0  0  0  0  0  0  0  0  0  0
   -0.7421    0.2705   -1.9499 H   0  0  0  0  0  0  0  0  0  0  0  0
   -0.3391   -2.7707   -2.3373 H   0  0  0  0  0  0  0  0  0  0  0  0
    0.2605   -1.4652   -3.3893 H   0  0  0  0  0  0  0  0  0  0  0  0
    0.3109   -2.4389    0.1042 H   0  0  0  0  0  0  0  0  0  0  0  0
    1.3985   -3.4678   -0.9180 H   0  0  0  0  0  0  0  0  0  0  0  0
    2.4364   -2.7954    1.2816 H   0  0  0  0  0  0  0  0  0  0  0  0
    2.2365   -1.0848    0.8328 H   0  0  0  0  0  0  0  0  0  0  0  0
    3.6131   -4.1806   -0.2014 H   0  0  0  0  0  0  0  0  0  0  0  0
    4.8832   -3.4257   -1.1938 H   0  0  0  0  0  0  0  0  0  0  0  0
    5.8382   -4.2915    0.8846 H   0  0  0  0  0  0  0  0  0  0  0  0
    4.7194   -3.3367    1.8862 H   0  0  0  0  0  0  0  0  0  0  0  0
    6.2822   -1.6864    2.7760 H   0  0  0  0  0  0  0  0  0  0  0  0
    4.9331   -0.9636    1.8002 H   0  0  0  0  0  0  0  0  0  0  0  0
    7.9415   -0.3525    1.4353 H   0  0  0  0  0  0  0  0  0  0  0  0
    6.7668    0.6385    2.3281 H   0  0  0  0  0  0  0  0  0  0  0  0
    7.6485   -0.7567   -0.7593 H   0  0  0  0  0  0  0  0  0  0  0  0
    6.4290    0.1410   -1.6832 H   0  0  0  0  0  0  0  0  0  0  0  0
    8.6374    1.1033   -2.1633 H   0  0  0  0  0  0  0  0  0  0  0  0
    7.5970    2.2805   -1.3285 H   0  0  0  0  0  0  0  0  0  0  0  0
   10.0161   -0.2522   -0.8384 H   0  0  0  0  0  0  0  0  0  0  0  0
   10.5881    0.4110    0.7069 H   0  0  0  0  0  0  0  0  0  0  0  0
   12.2302    0.8244   -1.1470 H   0  0  0  0  0  0  0  0  0  0  0  0
   10.9876    1.7221   -2.0457 H   0  0  0  0  0  0  0  0  0  0  0  0
   12.7136    1.5205    1.0325 H   0  0  0  0  0  0  0  0  0  0  0  0
   12.4921    3.2435    1.4181 H   0  0  0  0  0  0  0  0  0  0  0  0
   13.9349    3.9379   -0.4603 H   0  0  0  0  0  0  0  0  0  0  0  0
   14.1955    2.2498   -0.9637 H   0  0  0  0  0  0  0  0  0  0  0  0
   16.2798    1.5242   -0.1194 H   0  0  0  0  0  0  0  0  0  0  0  0
   15.0059    0.7668    0.9294 H   0  0  0  0  0  0  0  0  0  0  0  0
   17.2741    0.5805    1.9172 H   0  0  0  0  0  0  0  0  0  0  0  0
   17.4369    2.3838    1.9075 H   0  0  0  0  0  0  0  0  0  0  0  0
   16.7324    1.5517    3.9134 H   0  0  0  0  0  0  0  0  0  0  0  0
   -6.9562   -3.8993   -0.1790 H   0  0  0  0  0  0  0  0  0  0  0  0
   -8.9475   -3.4842    1.2087 H   0  0  0  0  0  0  0  0  0  0  0  0
  1  2  1  0
  2  3  1  0
  3  4  1  0
  4  5  1  0
  5  6  1  0
  6  7  1  0
  7  8  1  0
  8  9  1  0
  9 10  1  0
 10 11  2  0
 11 12  1  0
 12 13  2  0
 13 14  1  0
 14 15  1  0
 15 16  1  0
 16 17  1  0
 17 18  1  0
 18 19  1  0
 19 20  1  0
 20 21  1  0
 21 22  1  0
 22 23  1  0
 23 24  1  0
 24 25  1  0
 25 26  1  0
 26 27  1  0
 27 28  1  0
 28 29  1  0
 29 30  1  0
 30 31  1  0
 31 32  1  0
 32 33  1  0
 33 34  1  0
 34 35  1  0
 35 36  1  0
 36 37  1  0
 37 38  1  0
 38 39  1  0
 39 40  1  0
 40 41  1  0
 13 42  1  0
 42 43  2  0
 43 10  1  0
  1 44  1  0
  1 45  1  0
  1 46  1  0
  2 47  1  0
  2 48  1  0
  3 49  1  0
  3 50  1  0
  4 51  1  0
  4 52  1  0
  5 53  1  0
  5 54  1  0
  6 55  1  0
  6 56  1  0
  7 57  1  0
  7 58  1  0
  8 59  1  0
  8 60  1  0
  9 61  1  0
  9 62  1  0
 11 63  1  0
 12 64  1  0
 15 65  1  0
 15 66  1  0
 16 67  1  0
 16 68  1  0
 18 69  1  0
 18 70  1  0
 19 71  1  0
 19 72  1  0
 21 73  1  0
 21 74  1  0
 22 75  1  0
 22 76  1  0
 24 77  1  0
 24 78  1  0
 25 79  1  0
 25 80  1  0
 27 81  1  0
 27 82  1  0
 28 83  1  0
 28 84  1  0
 30 85  1  0
 30 86  1  0
 31 87  1  0
 31 88  1  0
 33 89  1  0
 33 90  1  0
 34 91  1  0
 34 92  1  0
 36 93  1  0
 36 94  1  0
 37 95  1  0
 37 96  1  0
 39 97  1  0
 39 98  1  0
 40 99  1  0
 40100  1  0
 41101  1  0
 42102  1  0
 43103  1  0
M  END
$$$$
