
     RDKit          3D

 43 46  0  0  0  0  0  0  0  0999 V2000
   -6.9490    1.5853   -1.3215 N   0  0  0  0  0  0  0  0  0  0  0  0
   -5.9483    1.2610   -0.3563 C   0  0  0  0  0  0  0  0  0  0  0  0
   -6.2974    0.9239    0.9215 N   0  0  0  0  0  0  0  0  0  0  0  0
   -5.3496    0.6039    1.8608 C   0  0  0  0  0  0  0  0  0  0  0  0
   -4.0211    0.6151    1.5377 N   0  0  0  0  0  0  0  0  0  0  0  0
   -3.6791    0.9539    0.2710 C   0  0  0  0  0  0  0  0  0  0  0  0
   -4.5946    1.2705   -0.6725 C   0  0  0  0  0  0  0  0  0  0  0  0
   -3.9905    1.5439   -1.8441 N   0  0  0  0  0  0  0  0  0  0  0  0
   -2.6719    1.3745   -1.5486 C   0  0  0  0  0  0  0  0  0  0  0  0
   -2.4499    1.0179   -0.2552 N   0  0  0  0  0  0  0  0  0  0  0  0
   -1.1769    0.6942    0.3988 C   0  0  2  0  0  0  0  0  0  0  0  0
   -0.1043    1.3834   -0.2355 O   0  0  0  0  0  0  0  0  0  0  0  0
    0.6802    0.4312   -0.9467 C   0  0  1  0  0  0  0  0  0  0  0  0
    2.0602    0.2998   -0.2845 C   0  0  0  0  0  0  0  0  0  0  0  0
    2.8960   -0.4961   -1.0924 O   0  0  0  0  0  0  0  0  0  0  0  0
    4.3799   -0.7163   -0.2816 P   0  0  2  0  0  5  0  0  0  0  0  0
    5.4393   -1.5182   -1.3303 O   0  0  0  0  0  0  0  0  0  0  0  0
    4.1521   -1.5687    0.9491 O   0  0  0  0  0  0  0  0  0  0  0  0
    5.0281    0.8040    0.1360 O   0  0  0  0  0  0  0  0  0  0  0  0
    6.3869    0.5433    1.1288 P   0  0  0  0  0  5  0  0  0  0  0  0
    7.1775    2.0232    1.3449 O   0  0  0  0  0  0  0  0  0  0  0  0
    7.4707   -0.5457    0.4118 O   0  0  0  0  0  0  0  0  0  0  0  0
    5.9484    0.0260    2.4819 O   0  0  0  0  0  0  0  0  0  0  0  0
   -0.1165   -0.8657   -0.9758 C   0  0  1  0  0  0  0  0  0  0  0  0
    0.5818   -2.0759   -1.0452 O   0  0  0  0  0  0  0  0  0  0  0  0
   -0.9124   -3.1819   -0.4295 V   0  0  0  0  0  6  0  0  0  0  0  0
   -0.4244   -4.3189    0.8174 O   0  0  0  0  0  0  0  0  0  0  0  0
   -1.7449   -3.9710   -1.7599 O   0  0  0  0  0  0  0  0  0  0  0  0
   -1.9406   -1.6830    0.2991 O   0  0  0  0  0  0  0  0  0  0  0  0
   -0.8657   -0.7882    0.3209 C   0  0  2  0  0  0  0  0  0  0  0  0
   -6.6894    1.8429   -2.2997 H   0  0  0  0  0  0  0  0  0  0  0  0
   -7.9586    1.5683   -1.0561 H   0  0  0  0  0  0  0  0  0  0  0  0
   -5.6557    0.3395    2.8635 H   0  0  0  0  0  0  0  0  0  0  0  0
   -1.8845    1.5057   -2.2792 H   0  0  0  0  0  0  0  0  0  0  0  0
   -1.2230    1.0082    1.4646 H   0  0  0  0  0  0  0  0  0  0  0  0
    0.8231    0.7957   -1.9878 H   0  0  0  0  0  0  0  0  0  0  0  0
    1.9387   -0.1365    0.7328 H   0  0  0  0  0  0  0  0  0  0  0  0
    2.4883    1.3230   -0.1885 H   0  0  0  0  0  0  0  0  0  0  0  0
    4.9679   -2.3541   -1.5751 H   0  0  0  0  0  0  0  0  0  0  0  0
    7.9889    1.8025    1.8683 H   0  0  0  0  0  0  0  0  0  0  0  0
    7.2717   -1.4236    0.8254 H   0  0  0  0  0  0  0  0  0  0  0  0
   -0.8333   -0.8309   -1.8273 H   0  0  0  0  0  0  0  0  0  0  0  0
   -0.1977   -1.0662    1.1671 H   0  0  0  0  0  0  0  0  0  0  0  0
  1  2  1  0
  2  3  2  0
  3  4  1  0
  4  5  2  0
  5  6  1  0
  6  7  2  0
  7  8  1  0
  8  9  2  0
  9 10  1  0
 10 11  1  0
 11 12  1  0
 12 13  1  0
 13 14  1  0
 14 15  1  0
 16 15  1  6
 16 17  1  0
 16 18  2  0
 16 19  1  0
 19 20  1  0
 20 21  1  0
 20 22  1  0
 20 23  2  0
 13 24  1  0
 24 25  1  0
 25 26  1  0
 26 27  2  0
 26 28  2  0
 26 29  1  0
 29 30  1  0
  7  2  1  0
 30 11  1  0
 10  6  1  0
 30 24  1  0
  1 31  1  0
  1 32  1  0
  4 33  1  0
  9 34  1  0
 11 35  1  1
 13 36  1  6
 14 37  1  0
 14 38  1  0
 17 39  1  0
 21 40  1  0
 22 41  1  0
 24 42  1  6
 30 43  1  1
M  RAD  1  26   2
M  END
$$$$
