
     RDKit          3D

 57 59  0  0  0  0  0  0  0  0999 V2000
   -2.5789   -0.4393   -0.1389 C   0  0  2  0  0  0  0  0  0  0  0  0
   -3.1426   -1.8710   -0.2826 C   0  0  0  0  0  0  0  0  0  0  0  0
   -2.6008   -2.8778    0.7635 C   0  0  0  0  0  0  0  0  0  0  0  0
   -3.1152   -2.5712    2.1783 C   0  0  0  0  0  0  0  0  0  0  0  0
   -2.9947   -4.3064    0.3669 C   0  0  0  0  0  0  0  0  0  0  0  0
   -3.2403    0.4623   -1.0886 N   0  0  0  0  0  0  0  0  0  0  0  0
   -3.1208    1.8898   -0.9916 C   0  0  0  0  0  0  0  0  0  0  0  0
   -2.4488    2.4078   -0.0585 O   0  0  0  0  0  0  0  0  0  0  0  0
   -3.7796    2.7569   -1.9799 C   0  0  0  0  0  0  0  0  0  0  0  0
   -3.7414    4.1378   -2.0003 C   0  0  0  0  0  0  0  0  0  0  0  0
   -4.4913    4.5137   -3.0938 C   0  0  0  0  0  0  0  0  0  0  0  0
   -4.9396    3.3432   -3.6717 C   0  0  0  0  0  0  0  0  0  0  0  0
   -4.4990    2.3139   -2.9855 O   0  0  0  0  0  0  0  0  0  0  0  0
   -1.0916   -0.4237   -0.3824 C   0  0  0  0  0  0  0  0  0  0  0  0
   -0.6527   -0.5225   -1.5612 O   0  0  0  0  0  0  0  0  0  0  0  0
   -0.1816   -0.3364    0.7240 N   0  0  0  0  0  0  0  0  0  0  0  0
    1.2704   -0.4191    0.5581 C   0  0  1  0  0  0  0  0  0  0  0  0
    1.9603    0.4126    1.6554 C   0  0  0  0  0  0  0  0  0  0  0  0
    3.4331    0.5753    1.4112 C   0  0  0  0  0  0  0  0  0  0  0  0
    4.4642   -0.0602    2.0971 C   0  0  0  0  0  0  0  0  0  0  0  0
    5.6636    0.3051    1.5898 N   0  0  0  0  0  0  0  0  0  0  0  0
    5.3985    1.1654    0.5912 C   0  0  0  0  0  0  0  0  0  0  0  0
    4.0475    1.3563    0.4521 C   0  0  0  0  0  0  0  0  0  0  0  0
    3.5219    2.2101   -0.5181 C   0  0  0  0  0  0  0  0  0  0  0  0
    4.4265    2.8761   -1.3649 C   0  0  0  0  0  0  0  0  0  0  0  0
    5.8181    2.6776   -1.2238 C   0  0  0  0  0  0  0  0  0  0  0  0
    6.3180    1.8119   -0.2337 C   0  0  0  0  0  0  0  0  0  0  0  0
    1.7779   -2.1753    0.6174 P   0  0  0  0  0  5  0  0  0  0  0  0
    3.4262   -2.3134    0.2595 O   0  0  0  0  0  0  0  0  0  0  0  0
    0.8917   -3.0497   -0.5293 O   0  0  0  0  0  0  0  0  0  0  0  0
    1.5081   -2.7372    1.9955 O   0  0  0  0  0  0  0  0  0  0  0  0
   -2.7973   -0.0712    0.8853 H   0  0  0  0  0  0  0  0  0  0  0  0
   -4.2520   -1.8315   -0.2062 H   0  0  0  0  0  0  0  0  0  0  0  0
   -2.9019   -2.2392   -1.3053 H   0  0  0  0  0  0  0  0  0  0  0  0
   -1.4914   -2.8368    0.7809 H   0  0  0  0  0  0  0  0  0  0  0  0
   -4.2253   -2.5275    2.1926 H   0  0  0  0  0  0  0  0  0  0  0  0
   -2.7084   -1.6079    2.5465 H   0  0  0  0  0  0  0  0  0  0  0  0
   -2.7813   -3.3588    2.8873 H   0  0  0  0  0  0  0  0  0  0  0  0
   -4.1005   -4.4133    0.3347 H   0  0  0  0  0  0  0  0  0  0  0  0
   -2.5800   -4.5556   -0.6332 H   0  0  0  0  0  0  0  0  0  0  0  0
   -2.5839   -5.0365    1.0967 H   0  0  0  0  0  0  0  0  0  0  0  0
   -3.8114    0.0599   -1.8667 H   0  0  0  0  0  0  0  0  0  0  0  0
   -3.2310    4.7925   -1.3061 H   0  0  0  0  0  0  0  0  0  0  0  0
   -4.6886    5.5224   -3.4310 H   0  0  0  0  0  0  0  0  0  0  0  0
   -5.5596    3.2686   -4.5550 H   0  0  0  0  0  0  0  0  0  0  0  0
   -0.5744   -0.3450    1.6929 H   0  0  0  0  0  0  0  0  0  0  0  0
    1.5543   -0.0070   -0.4342 H   0  0  0  0  0  0  0  0  0  0  0  0
    1.5022    1.4249    1.6859 H   0  0  0  0  0  0  0  0  0  0  0  0
    1.7928   -0.0534    2.6508 H   0  0  0  0  0  0  0  0  0  0  0  0
    4.3416   -0.7585    2.9148 H   0  0  0  0  0  0  0  0  0  0  0  0
    6.6028   -0.0208    1.9095 H   0  0  0  0  0  0  0  0  0  0  0  0
    2.4548    2.3603   -0.6187 H   0  0  0  0  0  0  0  0  0  0  0  0
    4.0535    3.5455   -2.1291 H   0  0  0  0  0  0  0  0  0  0  0  0
    6.5044    3.1954   -1.8810 H   0  0  0  0  0  0  0  0  0  0  0  0
    7.3824    1.6540   -0.1174 H   0  0  0  0  0  0  0  0  0  0  0  0
    3.6219   -3.2814    0.3323 H   0  0  0  0  0  0  0  0  0  0  0  0
    1.1692   -3.9917   -0.4014 H   0  0  0  0  0  0  0  0  0  0  0  0
  1  2  1  0
  2  3  1  0
  3  4  1  0
  3  5  1  0
  1  6  1  0
  6  7  1  0
  7  8  2  0
  7  9  1  0
  9 10  2  0
 10 11  1  0
 11 12  2  0
 12 13  1  0
  1 14  1  0
 14 15  2  0
 14 16  1  0
 16 17  1  0
 17 18  1  0
 18 19  1  0
 19 20  2  0
 20 21  1  0
 21 22  1  0
 22 23  2  0
 23 24  1  0
 24 25  2  0
 25 26  1  0
 26 27  2  0
 17 28  1  0
 28 29  1  0
 28 30  1  0
 28 31  2  0
 13  9  1  0
 23 19  1  0
 27 22  1  0
  1 32  1  1
  2 33  1  0
  2 34  1  0
  3 35  1  0
  4 36  1  0
  4 37  1  0
  4 38  1  0
  5 39  1  0
  5 40  1  0
  5 41  1  0
  6 42  1  0
 10 43  1  0
 11 44  1  0
 12 45  1  0
 16 46  1  0
 17 47  1  6
 18 48  1  0
 18 49  1  0
 20 50  1  0
 21 51  1  0
 24 52  1  0
 25 53  1  0
 26 54  1  0
 27 55  1  0
 29 56  1  0
 30 57  1  0
M  END
$$$$
