
     RDKit          3D

 41 42  0  0  0  0  0  0  0  0999 V2000
   -5.8570   -1.1481   -0.6581 C   0  0  0  0  0  0  0  0  0  0  0  0
   -5.0312    0.0928   -1.0421 C   0  0  2  0  0  0  0  0  0  0  0  0
   -3.5802   -0.1823   -1.1303 N   0  0  0  0  0  0  0  0  0  0  0  0
   -3.0280   -0.9149    0.0208 C   0  0  0  0  0  0  0  0  0  0  0  0
   -1.5342   -0.7541    0.0427 C   0  0  0  0  0  0  0  0  0  0  0  0
   -0.9519    0.3526    0.6790 C   0  0  0  0  0  0  0  0  0  0  0  0
    0.4356    0.5241    0.6693 C   0  0  0  0  0  0  0  0  0  0  0  0
    1.2611   -0.4068    0.0098 C   0  0  0  0  0  0  0  0  0  0  0  0
    2.6574   -0.2804   -0.0287 O   0  0  0  0  0  0  0  0  0  0  0  0
    3.3881    0.7790    0.5825 C   0  0  0  0  0  0  0  0  0  0  0  0
    4.8533    0.5757    0.3309 C   0  0  0  0  0  0  0  0  0  0  0  0
    5.6228   -0.1986    1.2151 C   0  0  0  0  0  0  0  0  0  0  0  0
    6.9804   -0.4189    0.9594 C   0  0  0  0  0  0  0  0  0  0  0  0
    7.7201   -1.1611    1.8198 F   0  0  0  0  0  0  0  0  0  0  0  0
    7.5739    0.1214   -0.1853 C   0  0  0  0  0  0  0  0  0  0  0  0
    6.8100    0.8782   -1.0782 C   0  0  0  0  0  0  0  0  0  0  0  0
    5.4526    1.1005   -0.8259 C   0  0  0  0  0  0  0  0  0  0  0  0
    0.6749   -1.5009   -0.6370 C   0  0  0  0  0  0  0  0  0  0  0  0
   -0.7122   -1.6726   -0.6275 C   0  0  0  0  0  0  0  0  0  0  0  0
   -5.3262    1.2609   -0.1295 C   0  0  0  0  0  0  0  0  0  0  0  0
   -6.6405    1.8179   -0.0813 N   0  0  0  0  0  0  0  0  0  0  0  0
   -4.4160    1.7730    0.5764 O   0  0  0  0  0  0  0  0  0  0  0  0
   -5.7101   -1.4131    0.4105 H   0  0  0  0  0  0  0  0  0  0  0  0
   -6.9382   -0.9557   -0.8220 H   0  0  0  0  0  0  0  0  0  0  0  0
   -5.5640   -2.0117   -1.2921 H   0  0  0  0  0  0  0  0  0  0  0  0
   -5.3709    0.4011   -2.0562 H   0  0  0  0  0  0  0  0  0  0  0  0
   -3.4052   -0.7537   -1.9910 H   0  0  0  0  0  0  0  0  0  0  0  0
   -3.2877   -1.9953   -0.0487 H   0  0  0  0  0  0  0  0  0  0  0  0
   -3.4474   -0.5379    0.9786 H   0  0  0  0  0  0  0  0  0  0  0  0
   -1.5727    1.0833    1.1827 H   0  0  0  0  0  0  0  0  0  0  0  0
    0.8547    1.3840    1.1733 H   0  0  0  0  0  0  0  0  0  0  0  0
    3.0626    1.7541    0.1584 H   0  0  0  0  0  0  0  0  0  0  0  0
    3.1896    0.7907    1.6767 H   0  0  0  0  0  0  0  0  0  0  0  0
    5.1712   -0.6304    2.0998 H   0  0  0  0  0  0  0  0  0  0  0  0
    8.6240   -0.0502   -0.3841 H   0  0  0  0  0  0  0  0  0  0  0  0
    7.2689    1.2893   -1.9681 H   0  0  0  0  0  0  0  0  0  0  0  0
    4.8697    1.6803   -1.5311 H   0  0  0  0  0  0  0  0  0  0  0  0
    1.2984   -2.2200   -1.1531 H   0  0  0  0  0  0  0  0  0  0  0  0
   -1.1450   -2.5209   -1.1434 H   0  0  0  0  0  0  0  0  0  0  0  0
   -7.4024    1.4474   -0.6913 H   0  0  0  0  0  0  0  0  0  0  0  0
   -6.8486    2.6211    0.5527 H   0  0  0  0  0  0  0  0  0  0  0  0
  1  2  1  0
  2  3  1  0
  3  4  1  0
  4  5  1  0
  5  6  2  0
  6  7  1  0
  7  8  2  0
  8  9  1  0
  9 10  1  0
 10 11  1  0
 11 12  2  0
 12 13  1  0
 13 14  1  0
 13 15  2  0
 15 16  1  0
 16 17  2  0
  8 18  1  0
 18 19  2  0
  2 20  1  0
 20 21  1  0
 20 22  2  0
 19  5  1  0
 17 11  1  0
  1 23  1  0
  1 24  1  0
  1 25  1  0
  2 26  1  6
  3 27  1  0
  4 28  1  0
  4 29  1  0
  6 30  1  0
  7 31  1  0
 10 32  1  0
 10 33  1  0
 12 34  1  0
 15 35  1  0
 16 36  1  0
 17 37  1  0
 18 38  1  0
 19 39  1  0
 21 40  1  0
 21 41  1  0
M  END
$$$$
