
     RDKit          3D

 52 55  0  0  0  0  0  0  0  0999 V2000
   -5.0801    0.6065   -1.3264 C   0  0  0  0  0  0  0  0  0  0  0  0
   -4.5665   -0.3565   -0.2949 C   0  0  0  0  0  0  0  0  0  0  0  0
   -5.1273   -1.4366   -0.1818 O   0  0  0  0  0  0  0  0  0  0  0  0
   -3.3411   -0.0198    0.5610 C   0  0  1  0  0  0  0  0  0  0  0  0
   -3.4408    1.3195    0.9977 O   0  0  0  0  0  0  0  0  0  0  0  0
   -3.1802   -0.9379    1.8139 C   0  0  0  0  0  0  0  0  0  0  0  0
   -1.6692   -1.1434    2.0290 C   0  0  0  0  0  0  0  0  0  0  0  0
   -1.0063   -0.2416    0.9932 C   0  0  1  0  0  0  0  0  0  0  0  0
    0.4444   -0.5409    0.5614 C   0  0  2  0  0  0  0  0  0  0  0  0
    1.3826   -0.5830    1.7422 C   0  0  0  0  0  0  0  0  0  0  0  0
    2.7048   -0.3791    1.6076 C   0  0  0  0  0  0  0  0  0  0  0  0
    3.5857   -0.4975    2.8286 C   0  0  0  0  0  0  0  0  0  0  0  0
    3.2769    0.0090    0.2752 C   0  0  0  0  0  0  0  0  0  0  0  0
    4.6104    0.1304    0.1076 C   0  0  0  0  0  0  0  0  0  0  0  0
    5.1963    0.5631   -1.1718 C   0  0  0  0  0  0  0  0  0  0  0  0
    6.4484    0.6329   -1.2901 O   0  0  0  0  0  0  0  0  0  0  0  0
    4.3232    0.8810   -2.3463 C   0  0  0  0  0  0  0  0  0  0  0  0
    2.9150    1.2692   -1.8889 C   0  0  0  0  0  0  0  0  0  0  0  0
    2.3413    0.2074   -0.9216 C   0  0  2  0  0  0  0  0  0  0  0  0
    0.9100    0.5629   -0.4333 C   0  0  1  0  0  0  0  0  0  0  0  0
   -0.0963    0.7640   -1.6058 C   0  0  0  0  0  0  0  0  0  0  0  0
   -1.5626    0.9250   -1.1379 C   0  0  0  0  0  0  0  0  0  0  0  0
   -1.9884   -0.2237   -0.1906 C   0  0  2  0  0  0  0  0  0  0  0  0
   -2.0157   -1.5719   -0.9898 C   0  0  0  0  0  0  0  0  0  0  0  0
   -6.1418    0.8485   -1.1110 H   0  0  0  0  0  0  0  0  0  0  0  0
   -5.0094    0.1440   -2.3330 H   0  0  0  0  0  0  0  0  0  0  0  0
   -4.4979    1.5507   -1.3284 H   0  0  0  0  0  0  0  0  0  0  0  0
   -4.2938    1.4148    1.4983 H   0  0  0  0  0  0  0  0  0  0  0  0
   -3.6404   -0.4767    2.7151 H   0  0  0  0  0  0  0  0  0  0  0  0
   -3.6518   -1.9338    1.6731 H   0  0  0  0  0  0  0  0  0  0  0  0
   -1.3776   -0.8515    3.0613 H   0  0  0  0  0  0  0  0  0  0  0  0
   -1.3886   -2.2059    1.8584 H   0  0  0  0  0  0  0  0  0  0  0  0
   -0.9837    0.7770    1.4534 H   0  0  0  0  0  0  0  0  0  0  0  0
    0.5049   -1.5389    0.0812 H   0  0  0  0  0  0  0  0  0  0  0  0
    0.9807   -0.8384    2.7146 H   0  0  0  0  0  0  0  0  0  0  0  0
    4.1427    0.4505    2.9823 H   0  0  0  0  0  0  0  0  0  0  0  0
    3.0039   -0.6989    3.7537 H   0  0  0  0  0  0  0  0  0  0  0  0
    4.3042   -1.3324    2.6906 H   0  0  0  0  0  0  0  0  0  0  0  0
    5.2968   -0.0541    0.9225 H   0  0  0  0  0  0  0  0  0  0  0  0
    4.2697   -0.0124   -3.0053 H   0  0  0  0  0  0  0  0  0  0  0  0
    4.7641    1.7196   -2.9273 H   0  0  0  0  0  0  0  0  0  0  0  0
    2.2859    1.3537   -2.7988 H   0  0  0  0  0  0  0  0  0  0  0  0
    2.9448    2.2620   -1.3875 H   0  0  0  0  0  0  0  0  0  0  0  0
    2.2898   -0.7604   -1.4700 H   0  0  0  0  0  0  0  0  0  0  0  0
    0.9631    1.5315    0.1170 H   0  0  0  0  0  0  0  0  0  0  0  0
   -0.0137   -0.0730   -2.3301 H   0  0  0  0  0  0  0  0  0  0  0  0
    0.1638    1.6915   -2.1578 H   0  0  0  0  0  0  0  0  0  0  0  0
   -1.6566    1.9082   -0.6277 H   0  0  0  0  0  0  0  0  0  0  0  0
   -2.2244    0.9509   -2.0298 H   0  0  0  0  0  0  0  0  0  0  0  0
   -2.3408   -2.4231   -0.3574 H   0  0  0  0  0  0  0  0  0  0  0  0
   -2.7210   -1.4980   -1.8443 H   0  0  0  0  0  0  0  0  0  0  0  0
   -1.0373   -1.8448   -1.4249 H   0  0  0  0  0  0  0  0  0  0  0  0
  1  2  1  0
  2  3  2  0
  2  4  1  0
  4  5  1  1
  4  6  1  0
  6  7  1  0
  7  8  1  0
  8  9  1  0
  9 10  1  0
 10 11  2  0
 11 12  1  0
 11 13  1  0
 13 14  2  0
 14 15  1  0
 15 16  2  0
 15 17  1  0
 17 18  1  0
 18 19  1  0
 19 20  1  0
 20 21  1  0
 21 22  1  0
 22 23  1  0
 23 24  1  6
 23  4  1  0
 23  8  1  0
 20  9  1  0
 19 13  1  0
  1 25  1  0
  1 26  1  0
  1 27  1  0
  5 28  1  0
  6 29  1  0
  6 30  1  0
  7 31  1  0
  7 32  1  0
  8 33  1  1
  9 34  1  6
 10 35  1  0
 12 36  1  0
 12 37  1  0
 12 38  1  0
 14 39  1  0
 17 40  1  0
 17 41  1  0
 18 42  1  0
 18 43  1  0
 19 44  1  6
 20 45  1  1
 21 46  1  0
 21 47  1  0
 22 48  1  0
 22 49  1  0
 24 50  1  0
 24 51  1  0
 24 52  1  0
M  END
$$$$
