
     RDKit          3D

 39 41  0  0  0  0  0  0  0  0999 V2000
   -2.0778   -1.2495   -1.7297 O   0  0  0  0  0  0  0  0  0  0  0  0
   -1.8139   -1.3460   -0.4997 C   0  0  0  0  0  0  0  0  0  0  0  0
   -2.8518   -1.7224    0.4204 N   0  0  0  0  0  0  0  0  0  0  0  0
   -4.2598   -1.7628    0.0333 C   0  0  0  0  0  0  0  0  0  0  0  0
   -4.7913   -0.3683   -0.1201 C   0  0  0  0  0  0  0  0  0  0  0  0
   -5.0149    0.3881    0.9904 N   0  0  0  0  0  0  0  0  0  0  0  0
   -5.4706    1.6668    0.9084 C   0  0  0  0  0  0  0  0  0  0  0  0
   -5.7170    2.2429   -0.3397 C   0  0  0  0  0  0  0  0  0  0  0  0
   -5.4889    1.4927   -1.4945 C   0  0  0  0  0  0  0  0  0  0  0  0
   -5.0214    0.1810   -1.3905 C   0  0  0  0  0  0  0  0  0  0  0  0
   -0.4319   -1.0851   -0.0305 C   0  0  0  0  0  0  0  0  0  0  0  0
   -0.1762   -0.6965    1.2971 C   0  0  0  0  0  0  0  0  0  0  0  0
    1.1316   -0.4453    1.7225 C   0  0  0  0  0  0  0  0  0  0  0  0
    2.2027   -0.5569    0.8309 C   0  0  0  0  0  0  0  0  0  0  0  0
    3.5008   -0.3115    1.3025 O   0  0  0  0  0  0  0  0  0  0  0  0
    4.5625    0.1933    0.5372 C   0  0  0  0  0  0  0  0  0  0  0  0
    4.3531    1.0894   -0.5282 C   0  0  0  0  0  0  0  0  0  0  0  0
    5.4404    1.5831   -1.2560 C   0  0  0  0  0  0  0  0  0  0  0  0
    6.7411    1.1977   -0.9201 C   0  0  0  0  0  0  0  0  0  0  0  0
    6.9565    0.3239    0.1491 C   0  0  0  0  0  0  0  0  0  0  0  0
    5.8710   -0.1712    0.8788 C   0  0  0  0  0  0  0  0  0  0  0  0
    1.9549   -0.9538   -0.4939 C   0  0  0  0  0  0  0  0  0  0  0  0
    0.6485   -1.2051   -0.9225 C   0  0  0  0  0  0  0  0  0  0  0  0
   -2.6025   -2.0306    1.3866 H   0  0  0  0  0  0  0  0  0  0  0  0
   -4.3803   -2.3511   -0.9025 H   0  0  0  0  0  0  0  0  0  0  0  0
   -4.8439   -2.2801    0.8248 H   0  0  0  0  0  0  0  0  0  0  0  0
   -5.6391    2.2369    1.8122 H   0  0  0  0  0  0  0  0  0  0  0  0
   -6.0785    3.2605   -0.4108 H   0  0  0  0  0  0  0  0  0  0  0  0
   -5.6719    1.9276   -2.4685 H   0  0  0  0  0  0  0  0  0  0  0  0
   -4.8396   -0.3973   -2.2878 H   0  0  0  0  0  0  0  0  0  0  0  0
   -0.9831   -0.5626    2.0049 H   0  0  0  0  0  0  0  0  0  0  0  0
    1.3123   -0.1476    2.7477 H   0  0  0  0  0  0  0  0  0  0  0  0
    3.3551    1.4208   -0.7831 H   0  0  0  0  0  0  0  0  0  0  0  0
    5.2751    2.2703   -2.0757 H   0  0  0  0  0  0  0  0  0  0  0  0
    7.5818    1.5817   -1.4833 H   0  0  0  0  0  0  0  0  0  0  0  0
    7.9645    0.0315    0.4137 H   0  0  0  0  0  0  0  0  0  0  0  0
    6.0458   -0.8458    1.7073 H   0  0  0  0  0  0  0  0  0  0  0  0
    2.7716   -1.0880   -1.1910 H   0  0  0  0  0  0  0  0  0  0  0  0
    0.4851   -1.5106   -1.9486 H   0  0  0  0  0  0  0  0  0  0  0  0
  1  2  2  0
  2  3  1  0
  3  4  1  0
  4  5  1  0
  5  6  2  0
  6  7  1  0
  7  8  2  0
  8  9  1  0
  9 10  2  0
  2 11  1  0
 11 12  2  0
 12 13  1  0
 13 14  2  0
 14 15  1  0
 15 16  1  0
 16 17  2  0
 17 18  1  0
 18 19  2  0
 19 20  1  0
 20 21  2  0
 14 22  1  0
 22 23  2  0
 10  5  1  0
 23 11  1  0
 21 16  1  0
  3 24  1  0
  4 25  1  0
  4 26  1  0
  7 27  1  0
  8 28  1  0
  9 29  1  0
 10 30  1  0
 12 31  1  0
 13 32  1  0
 17 33  1  0
 18 34  1  0
 19 35  1  0
 20 36  1  0
 21 37  1  0
 22 38  1  0
 23 39  1  0
M  END
$$$$
