
     RDKit          3D

 35 37  0  0  0  0  0  0  0  0999 V2000
    4.7834    0.7863    2.3133 O   0  0  0  0  0  0  0  0  0  0  0  0
    4.9305    1.1623    0.9801 C   0  0  0  0  0  0  0  0  0  0  0  0
    5.9567    1.8091    0.6408 O   0  0  0  0  0  0  0  0  0  0  0  0
    3.8742    0.8188   -0.0082 C   0  0  0  0  0  0  0  0  0  0  0  0
    2.6219    0.3873    0.4713 C   0  0  0  0  0  0  0  0  0  0  0  0
    1.5851    0.0459   -0.4077 C   0  0  0  0  0  0  0  0  0  0  0  0
    0.3129   -0.3592    0.1232 N   0  0  0  0  0  0  0  0  0  0  0  0
   -0.6016   -1.2202   -0.5729 C   0  0  0  0  0  0  0  0  0  0  0  0
   -1.9321   -1.2083   -0.4330 C   0  0  0  0  0  0  0  0  0  0  0  0
   -2.4529   -2.3609   -1.1793 C   0  0  0  0  0  0  0  0  0  0  0  0
   -3.6690   -2.6600   -1.3103 O   0  0  0  0  0  0  0  0  0  0  0  0
   -1.3970   -3.1021   -1.7730 N   0  0  0  0  0  0  0  0  0  0  0  0
   -0.2361   -2.3909   -1.3748 C   0  0  0  0  0  0  0  0  0  0  0  0
    0.9362   -2.7691   -1.6357 O   0  0  0  0  0  0  0  0  0  0  0  0
   -2.7358   -0.2263    0.3304 C   0  0  0  0  0  0  0  0  0  0  0  0
   -2.4187    1.1437    0.2947 C   0  0  0  0  0  0  0  0  0  0  0  0
   -3.1871    2.0667    1.0128 C   0  0  0  0  0  0  0  0  0  0  0  0
   -2.7819    3.7726    0.9624 Cl  0  0  0  0  0  0  0  0  0  0  0  0
   -4.2810    1.6299    1.7661 C   0  0  0  0  0  0  0  0  0  0  0  0
   -4.6086    0.2724    1.7998 C   0  0  0  0  0  0  0  0  0  0  0  0
   -3.8429   -0.6526    1.0838 C   0  0  0  0  0  0  0  0  0  0  0  0
    1.7898    0.1688   -1.7890 C   0  0  0  0  0  0  0  0  0  0  0  0
    3.0245    0.5872   -2.2822 C   0  0  0  0  0  0  0  0  0  0  0  0
    4.0711    0.9076   -1.4101 C   0  0  0  0  0  0  0  0  0  0  0  0
    5.6036    1.3803   -2.1402 Cl  0  0  0  0  0  0  0  0  0  0  0  0
    5.4898    1.0189    3.0012 H   0  0  0  0  0  0  0  0  0  0  0  0
    2.4424    0.3142    1.5371 H   0  0  0  0  0  0  0  0  0  0  0  0
    0.0477   -0.0314    1.0797 H   0  0  0  0  0  0  0  0  0  0  0  0
   -1.4578   -3.9806   -2.3337 H   0  0  0  0  0  0  0  0  0  0  0  0
   -1.5880    1.4987   -0.3025 H   0  0  0  0  0  0  0  0  0  0  0  0
   -4.8782    2.3406    2.3230 H   0  0  0  0  0  0  0  0  0  0  0  0
   -5.4555   -0.0642    2.3836 H   0  0  0  0  0  0  0  0  0  0  0  0
   -4.1048   -1.7018    1.1341 H   0  0  0  0  0  0  0  0  0  0  0  0
    0.9916   -0.0473   -2.4871 H   0  0  0  0  0  0  0  0  0  0  0  0
    3.1678    0.6634   -3.3529 H   0  0  0  0  0  0  0  0  0  0  0  0
  1  2  1  0
  2  3  2  0
  2  4  1  0
  4  5  2  0
  5  6  1  0
  6  7  1  0
  7  8  1  0
  8  9  2  0
  9 10  1  0
 10 11  2  0
 10 12  1  0
 12 13  1  0
 13 14  2  0
  9 15  1  0
 15 16  2  0
 16 17  1  0
 17 18  1  0
 17 19  2  0
 19 20  1  0
 20 21  2  0
  6 22  2  0
 22 23  1  0
 23 24  2  0
 24 25  1  0
 24  4  1  0
 13  8  1  0
 21 15  1  0
  1 26  1  0
  5 27  1  0
  7 28  1  0
 12 29  1  0
 16 30  1  0
 19 31  1  0
 20 32  1  0
 21 33  1  0
 22 34  1  0
 23 35  1  0
M  END
$$$$
