
     RDKit          3D

 13 12  0  0  0  0  0  0  0  0999 V2000
   -1.8701    0.1140    0.8771 C   0  0  0  0  0  0  0  0  0  0  0  0
   -0.8539    0.0080   -0.2214 C   0  0  0  0  0  0  0  0  0  0  0  0
   -1.1131   -0.6627   -1.2093 O   0  0  0  0  0  0  0  0  0  0  0  0
    0.4732    0.7092   -0.1305 C   0  0  0  0  0  0  0  0  0  0  0  0
    1.5686   -0.2871    0.0734 C   0  0  0  0  0  0  0  0  0  0  0  0
    2.2293   -0.8260   -1.0261 O   0  0  0  0  0  0  0  0  0  0  0  0
    1.8672   -0.6676    1.2371 O   0  0  0  0  0  0  0  0  0  0  0  0
   -1.4948    0.7342    1.7177 H   0  0  0  0  0  0  0  0  0  0  0  0
   -2.1045   -0.8998    1.2639 H   0  0  0  0  0  0  0  0  0  0  0  0
   -2.7988    0.5750    0.4806 H   0  0  0  0  0  0  0  0  0  0  0  0
    0.4796    1.4380    0.7083 H   0  0  0  0  0  0  0  0  0  0  0  0
    0.6543    1.2788   -1.0672 H   0  0  0  0  0  0  0  0  0  0  0  0
    2.9630   -1.5139   -0.9052 H   0  0  0  0  0  0  0  0  0  0  0  0
  1  2  1  0
  2  3  2  0
  2  4  1  0
  4  5  1  0
  5  6  1  0
  5  7  2  0
  1  8  1  0
  1  9  1  0
  1 10  1  0
  4 11  1  0
  4 12  1  0
  6 13  1  0
M  END
$$$$
