
     RDKit          3D

 54 61  0  0  0  0  0  0  0  0999 V2000
    2.9665    0.6182    2.0420 C   0  0  0  0  0  0  0  0  0  0  0  0
    2.0226   -0.0748    1.0293 C   0  0  2  0  0  0  0  0  0  0  0  0
    1.3683   -1.0873    1.7609 O   0  0  0  0  0  0  0  0  0  0  0  0
    0.9156   -2.0419    0.8335 C   0  0  2  0  0  0  0  0  0  0  0  0
    1.7357   -1.9103   -0.4530 C   0  0  0  0  0  0  0  0  0  0  0  0
    2.7426   -0.8047   -0.1385 C   0  0  1  0  0  0  0  0  0  0  0  0
    2.9138    0.0638   -1.2343 O   0  0  0  0  0  0  0  0  0  0  0  0
    4.1112   -1.4194    0.2701 C   0  0  0  0  0  0  0  0  0  0  0  0
    4.6320   -2.2008   -0.7716 O   0  0  0  0  0  0  0  0  0  0  0  0
   -0.4967   -1.7795    0.5756 N   0  0  0  0  0  0  0  0  0  0  0  0
   -1.5180   -2.6486    0.3975 C   0  0  0  0  0  0  0  0  0  0  0  0
   -2.6963   -1.9795    0.0907 C   0  0  0  0  0  0  0  0  0  0  0  0
   -3.8749   -2.6837   -0.1731 C   0  0  0  0  0  0  0  0  0  0  0  0
   -3.8418   -4.0868   -0.1056 C   0  0  0  0  0  0  0  0  0  0  0  0
   -2.6459   -4.7627    0.2060 C   0  0  0  0  0  0  0  0  0  0  0  0
   -1.4661   -4.0447    0.4558 C   0  0  0  0  0  0  0  0  0  0  0  0
   -2.3800   -0.6235    0.0644 C   0  0  0  0  0  0  0  0  0  0  0  0
   -1.0218   -0.5567    0.3724 C   0  0  0  0  0  0  0  0  0  0  0  0
   -0.3283    0.6644    0.3256 C   0  0  0  0  0  0  0  0  0  0  0  0
   -1.0080    1.8059   -0.0729 C   0  0  0  0  0  0  0  0  0  0  0  0
   -2.3835    1.7699   -0.3651 C   0  0  0  0  0  0  0  0  0  0  0  0
   -3.0739    0.5586   -0.2807 C   0  0  0  0  0  0  0  0  0  0  0  0
   -4.4415    0.8485   -0.6669 C   0  0  0  0  0  0  0  0  0  0  0  0
   -5.4064    0.0443   -0.6785 O   0  0  0  0  0  0  0  0  0  0  0  0
   -4.5732    2.2235   -0.9985 N   0  0  0  0  0  0  0  0  0  0  0  0
   -3.2779    2.8789   -0.8380 C   0  0  0  0  0  0  0  0  0  0  0  0
   -0.0546    2.7880   -0.1948 C   0  0  0  0  0  0  0  0  0  0  0  0
   -0.1544    4.1108   -0.6294 C   0  0  0  0  0  0  0  0  0  0  0  0
    1.0281    4.8519   -0.7617 C   0  0  0  0  0  0  0  0  0  0  0  0
    2.2746    4.2564   -0.4947 C   0  0  0  0  0  0  0  0  0  0  0  0
    2.3532    2.9207   -0.0657 C   0  0  0  0  0  0  0  0  0  0  0  0
    1.1627    2.2004    0.1231 C   0  0  0  0  0  0  0  0  0  0  0  0
    1.0058    0.8948    0.5078 N   0  0  0  0  0  0  0  0  0  0  0  0
    3.3954   -0.1299    2.7434 H   0  0  0  0  0  0  0  0  0  0  0  0
    3.8260    1.1214    1.5675 H   0  0  0  0  0  0  0  0  0  0  0  0
    2.4027    1.3563    2.6514 H   0  0  0  0  0  0  0  0  0  0  0  0
    1.0543   -3.0501    1.2766 H   0  0  0  0  0  0  0  0  0  0  0  0
    1.0880   -1.6133   -1.3087 H   0  0  0  0  0  0  0  0  0  0  0  0
    2.2124   -2.8800   -0.7143 H   0  0  0  0  0  0  0  0  0  0  0  0
    3.1910   -0.4830   -2.0153 H   0  0  0  0  0  0  0  0  0  0  0  0
    3.9863   -2.0508    1.1793 H   0  0  0  0  0  0  0  0  0  0  0  0
    4.8386   -0.6102    0.4963 H   0  0  0  0  0  0  0  0  0  0  0  0
    5.4856   -2.5786   -0.4344 H   0  0  0  0  0  0  0  0  0  0  0  0
   -4.7965   -2.1953   -0.4272 H   0  0  0  0  0  0  0  0  0  0  0  0
   -4.7421   -4.6544   -0.3025 H   0  0  0  0  0  0  0  0  0  0  0  0
   -2.6350   -5.8442    0.2464 H   0  0  0  0  0  0  0  0  0  0  0  0
   -0.5489   -4.5715    0.6789 H   0  0  0  0  0  0  0  0  0  0  0  0
   -5.4550    2.6914   -1.3044 H   0  0  0  0  0  0  0  0  0  0  0  0
   -2.9314    3.2743   -1.8159 H   0  0  0  0  0  0  0  0  0  0  0  0
   -3.3466    3.6821   -0.0745 H   0  0  0  0  0  0  0  0  0  0  0  0
   -1.1055    4.5618   -0.8707 H   0  0  0  0  0  0  0  0  0  0  0  0
    0.9839    5.8793   -1.0990 H   0  0  0  0  0  0  0  0  0  0  0  0
    3.1827    4.8262   -0.6433 H   0  0  0  0  0  0  0  0  0  0  0  0
    3.3248    2.4748    0.0389 H   0  0  0  0  0  0  0  0  0  0  0  0
  2  1  1  1
  2  3  1  0
  3  4  1  0
  4  5  1  0
  5  6  1  0
  6  7  1  6
  6  8  1  0
  8  9  1  0
  4 10  1  0
 10 11  1  0
 11 12  2  0
 12 13  1  0
 13 14  2  0
 14 15  1  0
 15 16  2  0
 12 17  1  0
 17 18  1  0
 18 19  2  0
 19 20  1  0
 20 21  2  0
 21 22  1  0
 22 23  1  0
 23 24  2  0
 23 25  1  0
 25 26  1  0
 20 27  1  0
 27 28  2  0
 28 29  1  0
 29 30  2  0
 30 31  1  0
 31 32  2  0
 32 33  1  0
  6  2  1  0
 18 10  1  0
 33 19  1  0
 33  2  1  0
 16 11  1  0
 22 17  2  0
 32 27  1  0
 26 21  1  0
  1 34  1  0
  1 35  1  0
  1 36  1  0
  4 37  1  1
  5 38  1  0
  5 39  1  0
  7 40  1  0
  8 41  1  0
  8 42  1  0
  9 43  1  0
 13 44  1  0
 14 45  1  0
 15 46  1  0
 16 47  1  0
 25 48  1  0
 26 49  1  0
 26 50  1  0
 28 51  1  0
 29 52  1  0
 30 53  1  0
 31 54  1  0
M  END
$$$$
