
     RDKit          3D

 44 46  0  0  0  0  0  0  0  0999 V2000
    3.5012   -0.8117    2.5891 C   0  0  0  0  0  0  0  0  0  0  0  0
    3.7140    0.1168    1.4714 N   0  0  0  0  0  0  0  0  0  0  0  0
    3.0677    1.4389    1.5082 C   0  0  0  0  0  0  0  0  0  0  0  0
    1.8169    1.4531    0.6322 C   0  0  0  0  0  0  0  0  0  0  0  0
    0.8867    0.4834    1.1081 O   0  0  0  0  0  0  0  0  0  0  0  0
   -0.3589    0.2225    0.5196 C   0  0  0  0  0  0  0  0  0  0  0  0
   -1.1642   -0.7732    1.0837 C   0  0  0  0  0  0  0  0  0  0  0  0
   -2.4140   -1.0721    0.5342 C   0  0  0  0  0  0  0  0  0  0  0  0
   -2.8754   -0.3789   -0.5953 C   0  0  0  0  0  0  0  0  0  0  0  0
   -4.2345   -0.6872   -1.1705 C   0  0  0  0  0  0  0  0  0  0  0  0
   -5.3567   -0.0342   -0.3480 C   0  0  0  0  0  0  0  0  0  0  0  0
   -5.2819    1.8045   -0.4803 S   0  0  0  0  0  0  0  0  0  0  0  0
   -6.8851    1.8230   -1.2645 C   0  0  0  0  0  0  0  0  0  0  0  0
   -7.4139    2.8799   -1.6968 O   0  0  0  0  0  0  0  0  0  0  0  0
   -7.5228    0.5687   -1.3783 N   0  0  0  0  0  0  0  0  0  0  0  0
   -6.7018   -0.4588   -0.8578 C   0  0  0  0  0  0  0  0  0  0  0  0
   -7.0928   -1.6557   -0.8182 O   0  0  0  0  0  0  0  0  0  0  0  0
   -2.0726    0.6245   -1.1603 C   0  0  0  0  0  0  0  0  0  0  0  0
   -0.8226    0.9233   -0.6099 C   0  0  0  0  0  0  0  0  0  0  0  0
    4.5406   -0.2533    0.3392 C   0  0  0  0  0  0  0  0  0  0  0  0
    5.1410   -1.5256    0.2427 C   0  0  0  0  0  0  0  0  0  0  0  0
    5.9279   -1.8357   -0.8686 C   0  0  0  0  0  0  0  0  0  0  0  0
    6.1173   -0.8893   -1.8745 C   0  0  0  0  0  0  0  0  0  0  0  0
    5.5139    0.3618   -1.7535 C   0  0  0  0  0  0  0  0  0  0  0  0
    4.7512    0.6467   -0.6651 N   0  0  0  0  0  0  0  0  0  0  0  0
    2.8362   -0.3763    3.3644 H   0  0  0  0  0  0  0  0  0  0  0  0
    3.0185   -1.7408    2.2193 H   0  0  0  0  0  0  0  0  0  0  0  0
    4.4736   -1.0563    3.0662 H   0  0  0  0  0  0  0  0  0  0  0  0
    2.7814    1.7131    2.5469 H   0  0  0  0  0  0  0  0  0  0  0  0
    3.7780    2.2219    1.1649 H   0  0  0  0  0  0  0  0  0  0  0  0
    2.0920    1.2268   -0.4203 H   0  0  0  0  0  0  0  0  0  0  0  0
    1.3571    2.4640    0.6768 H   0  0  0  0  0  0  0  0  0  0  0  0
   -0.8194   -1.3173    1.9540 H   0  0  0  0  0  0  0  0  0  0  0  0
   -3.0235   -1.8429    0.9896 H   0  0  0  0  0  0  0  0  0  0  0  0
   -4.2957   -0.3459   -2.2278 H   0  0  0  0  0  0  0  0  0  0  0  0
   -4.3731   -1.7909   -1.1790 H   0  0  0  0  0  0  0  0  0  0  0  0
   -5.2704   -0.3246    0.7213 H   0  0  0  0  0  0  0  0  0  0  0  0
   -8.4714    0.4201   -1.7891 H   0  0  0  0  0  0  0  0  0  0  0  0
   -2.4156    1.1785   -2.0253 H   0  0  0  0  0  0  0  0  0  0  0  0
   -0.2275    1.7015   -1.0678 H   0  0  0  0  0  0  0  0  0  0  0  0
    5.0106   -2.2771    1.0086 H   0  0  0  0  0  0  0  0  0  0  0  0
    6.3910   -2.8107   -0.9493 H   0  0  0  0  0  0  0  0  0  0  0  0
    6.7258   -1.1226   -2.7386 H   0  0  0  0  0  0  0  0  0  0  0  0
    5.6512    1.1079   -2.5246 H   0  0  0  0  0  0  0  0  0  0  0  0
  1  2  1  0
  2  3  1  0
  3  4  1  0
  4  5  1  0
  5  6  1  0
  6  7  2  0
  7  8  1  0
  8  9  2  0
  9 10  1  0
 10 11  1  0
 11 12  1  0
 12 13  1  0
 13 14  2  0
 13 15  1  0
 15 16  1  0
 16 17  2  0
  9 18  1  0
 18 19  2  0
  2 20  1  0
 20 21  2  0
 21 22  1  0
 22 23  2  0
 23 24  1  0
 24 25  2  0
 19  6  1  0
 25 20  1  0
 16 11  1  0
  1 26  1  0
  1 27  1  0
  1 28  1  0
  3 29  1  0
  3 30  1  0
  4 31  1  0
  4 32  1  0
  7 33  1  0
  8 34  1  0
 10 35  1  0
 10 36  1  0
 11 37  1  0
 15 38  1  0
 18 39  1  0
 19 40  1  0
 21 41  1  0
 22 42  1  0
 23 43  1  0
 24 44  1  0
M  END
$$$$
