
     RDKit          3D

 45 47  0  0  0  0  0  0  0  0999 V2000
   -5.7947   -0.6388    0.2889 C   0  0  0  0  0  0  0  0  0  0  0  0
   -4.4201   -0.2846   -0.3244 C   0  0  0  0  0  0  0  0  0  0  0  0
   -4.6415    0.1563   -1.7832 C   0  0  0  0  0  0  0  0  0  0  0  0
   -3.5499   -1.5607   -0.2850 C   0  0  0  0  0  0  0  0  0  0  0  0
   -3.7554    0.8535    0.4602 C   0  0  0  0  0  0  0  0  0  0  0  0
   -2.4245    1.2717    0.4312 C   0  0  0  0  0  0  0  0  0  0  0  0
   -1.3383    0.7628   -0.4291 C   0  0  0  0  0  0  0  0  0  0  0  0
   -0.0737    0.5251   -0.0071 C   0  0  0  0  0  0  0  0  0  0  0  0
    0.2663    0.6140    1.3155 N   0  0  0  0  0  0  0  0  0  0  0  0
    1.5350    0.3817    1.7490 C   0  0  0  0  0  0  0  0  0  0  0  0
    1.7918    0.4831    2.9814 O   0  0  0  0  0  0  0  0  0  0  0  0
    2.5430    0.0363    0.8231 C   0  0  0  0  0  0  0  0  0  0  0  0
    2.1935   -0.0939   -0.4934 N   0  0  0  0  0  0  0  0  0  0  0  0
    0.9254    0.1401   -0.9274 C   0  0  0  0  0  0  0  0  0  0  0  0
    0.6620    0.0076   -2.1555 O   0  0  0  0  0  0  0  0  0  0  0  0
    3.8103   -0.1933    1.2440 C   0  0  0  0  0  0  0  0  0  0  0  0
    4.9637   -0.4514    0.3566 C   0  0  0  0  0  0  0  0  0  0  0  0
    5.2908    0.4333   -0.6867 C   0  0  0  0  0  0  0  0  0  0  0  0
    6.4163    0.1979   -1.4824 C   0  0  0  0  0  0  0  0  0  0  0  0
    7.2337   -0.9072   -1.2298 C   0  0  0  0  0  0  0  0  0  0  0  0
    6.9317   -1.7734   -0.1753 C   0  0  0  0  0  0  0  0  0  0  0  0
    5.8067   -1.5412    0.6226 C   0  0  0  0  0  0  0  0  0  0  0  0
   -2.2685    2.3382    1.2425 N   0  0  0  0  0  0  0  0  0  0  0  0
   -3.4923    2.5489    1.7612 C   0  0  0  0  0  0  0  0  0  0  0  0
   -4.4093    1.6794    1.3039 N   0  0  0  0  0  0  0  0  0  0  0  0
   -5.6884   -0.8944    1.3657 H   0  0  0  0  0  0  0  0  0  0  0  0
   -6.2479   -1.5113   -0.2301 H   0  0  0  0  0  0  0  0  0  0  0  0
   -6.5091    0.2061    0.1876 H   0  0  0  0  0  0  0  0  0  0  0  0
   -3.6820    0.3727   -2.2929 H   0  0  0  0  0  0  0  0  0  0  0  0
   -5.2662    1.0750   -1.8206 H   0  0  0  0  0  0  0  0  0  0  0  0
   -5.1589   -0.6420   -2.3583 H   0  0  0  0  0  0  0  0  0  0  0  0
   -2.6271   -1.4543   -0.8873 H   0  0  0  0  0  0  0  0  0  0  0  0
   -3.2672   -1.8059    0.7617 H   0  0  0  0  0  0  0  0  0  0  0  0
   -4.1017   -2.4278   -0.7083 H   0  0  0  0  0  0  0  0  0  0  0  0
   -1.5903    0.6032   -1.4678 H   0  0  0  0  0  0  0  0  0  0  0  0
   -0.4496    0.8348    2.0427 H   0  0  0  0  0  0  0  0  0  0  0  0
    2.8870   -0.4144   -1.2054 H   0  0  0  0  0  0  0  0  0  0  0  0
    4.0300   -0.2057    2.3055 H   0  0  0  0  0  0  0  0  0  0  0  0
    4.6798    1.3070   -0.8783 H   0  0  0  0  0  0  0  0  0  0  0  0
    6.6592    0.8766   -2.2897 H   0  0  0  0  0  0  0  0  0  0  0  0
    8.1058   -1.0871   -1.8450 H   0  0  0  0  0  0  0  0  0  0  0  0
    7.5718   -2.6225    0.0267 H   0  0  0  0  0  0  0  0  0  0  0  0
    5.5880   -2.2156    1.4416 H   0  0  0  0  0  0  0  0  0  0  0  0
   -3.7159    3.3439    2.4603 H   0  0  0  0  0  0  0  0  0  0  0  0
   -5.4195    1.6760    1.5639 H   0  0  0  0  0  0  0  0  0  0  0  0
  1  2  1  0
  2  3  1  0
  2  4  1  0
  2  5  1  0
  5  6  2  0
  6  7  1  0
  7  8  2  0
  8  9  1  0
  9 10  1  0
 10 11  2  0
 10 12  1  0
 12 13  1  0
 13 14  1  0
 14 15  2  0
 12 16  2  0
 16 17  1  0
 17 18  2  0
 18 19  1  0
 19 20  2  0
 20 21  1  0
 21 22  2  0
  6 23  1  0
 23 24  2  0
 24 25  1  0
 25  5  1  0
 14  8  1  0
 22 17  1  0
  1 26  1  0
  1 27  1  0
  1 28  1  0
  3 29  1  0
  3 30  1  0
  3 31  1  0
  4 32  1  0
  4 33  1  0
  4 34  1  0
  7 35  1  0
  9 36  1  0
 13 37  1  0
 16 38  1  0
 18 39  1  0
 19 40  1  0
 20 41  1  0
 21 42  1  0
 22 43  1  0
 24 44  1  0
 25 45  1  0
M  END
$$$$
