
     RDKit          3D

 39 40  0  0  0  0  0  0  0  0999 V2000
    4.7298   -0.7993   -3.0667 O   0  0  0  0  0  0  0  0  0  0  0  0
    5.5491   -1.2479   -2.0339 C   0  0  0  0  0  0  0  0  0  0  0  0
    6.5815   -1.9163   -2.3118 O   0  0  0  0  0  0  0  0  0  0  0  0
    5.2102   -0.9425   -0.6260 C   0  0  0  0  0  0  0  0  0  0  0  0
    6.0325   -1.3924    0.4218 C   0  0  0  0  0  0  0  0  0  0  0  0
    5.7084   -1.1021    1.7486 C   0  0  0  0  0  0  0  0  0  0  0  0
    4.5633   -0.3614    2.0473 C   0  0  0  0  0  0  0  0  0  0  0  0
    3.7273    0.0986    1.0148 C   0  0  0  0  0  0  0  0  0  0  0  0
    2.5092    0.8833    1.3029 C   0  0  0  0  0  0  0  0  0  0  0  0
    2.1750    1.1718    2.5261 N   0  0  0  0  0  0  0  0  0  0  0  0
    1.0517    1.8935    2.9038 O   0  0  0  0  0  0  0  0  0  0  0  0
    0.0225    2.3203    2.0095 C   0  0  0  0  0  0  0  0  0  0  0  0
   -0.8655    1.1457    1.6094 C   0  0  0  0  0  0  0  0  0  0  0  0
   -1.8965    1.6014    0.7476 O   0  0  0  0  0  0  0  0  0  0  0  0
   -2.8282    0.7189    0.2510 N   0  0  0  0  0  0  0  0  0  0  0  0
   -3.7697    1.1295   -0.5364 C   0  0  0  0  0  0  0  0  0  0  0  0
   -4.7771    0.1953   -1.0787 C   0  0  0  0  0  0  0  0  0  0  0  0
   -4.7489   -1.1704   -0.7601 C   0  0  0  0  0  0  0  0  0  0  0  0
   -5.7256   -2.0060   -1.3014 C   0  0  0  0  0  0  0  0  0  0  0  0
   -5.7213   -3.2364   -1.0300 O   0  0  0  0  0  0  0  0  0  0  0  0
   -6.6812   -1.4923   -2.1212 N   0  0  0  0  0  0  0  0  0  0  0  0
   -6.6988   -0.1657   -2.4235 C   0  0  0  0  0  0  0  0  0  0  0  0
   -7.5919    0.2935   -3.1852 O   0  0  0  0  0  0  0  0  0  0  0  0
   -5.7540    0.6667   -1.9052 N   0  0  0  0  0  0  0  0  0  0  0  0
    4.0580   -0.1966   -0.3184 C   0  0  0  0  0  0  0  0  0  0  0  0
    4.9528   -1.0029   -4.0337 H   0  0  0  0  0  0  0  0  0  0  0  0
    6.9261   -1.9688    0.2170 H   0  0  0  0  0  0  0  0  0  0  0  0
    6.3474   -1.4529    2.5488 H   0  0  0  0  0  0  0  0  0  0  0  0
    4.3341   -0.1500    3.0842 H   0  0  0  0  0  0  0  0  0  0  0  0
    1.9039    1.2155    0.4711 H   0  0  0  0  0  0  0  0  0  0  0  0
    0.4562    2.8198    1.1176 H   0  0  0  0  0  0  0  0  0  0  0  0
   -0.6040    3.0713    2.5358 H   0  0  0  0  0  0  0  0  0  0  0  0
   -0.2691    0.3688    1.0871 H   0  0  0  0  0  0  0  0  0  0  0  0
   -1.3178    0.6964    2.5197 H   0  0  0  0  0  0  0  0  0  0  0  0
   -3.8215    2.1782   -0.8045 H   0  0  0  0  0  0  0  0  0  0  0  0
   -3.9877   -1.5803   -0.1069 H   0  0  0  0  0  0  0  0  0  0  0  0
   -7.4108   -2.1242   -2.5239 H   0  0  0  0  0  0  0  0  0  0  0  0
   -5.7840    1.6833   -2.1491 H   0  0  0  0  0  0  0  0  0  0  0  0
    3.4144    0.1567   -1.1154 H   0  0  0  0  0  0  0  0  0  0  0  0
  1  2  1  0
  2  3  2  0
  2  4  1  0
  4  5  2  0
  5  6  1  0
  6  7  2  0
  7  8  1  0
  8  9  1  0
  9 10  2  0
 10 11  1  0
 11 12  1  0
 12 13  1  0
 13 14  1  0
 14 15  1  0
 15 16  2  0
 16 17  1  0
 17 18  2  0
 18 19  1  0
 19 20  2  0
 19 21  1  0
 21 22  1  0
 22 23  2  0
 22 24  1  0
  8 25  2  0
 25  4  1  0
 24 17  1  0
  1 26  1  0
  5 27  1  0
  6 28  1  0
  7 29  1  0
  9 30  1  0
 12 31  1  0
 12 32  1  0
 13 33  1  0
 13 34  1  0
 16 35  1  0
 18 36  1  0
 21 37  1  0
 24 38  1  0
 25 39  1  0
M  END
$$$$
