
     RDKit          3D

 44 47  0  0  0  0  0  0  0  0999 V2000
   -2.2171   -0.9848    0.8444 C   0  0  2  0  0  0  0  0  0  0  0  0
   -3.0658   -1.0632    2.0871 C   0  0  0  0  0  0  0  0  0  0  0  0
   -2.3631   -0.7157    3.1610 C   0  0  0  0  0  0  0  0  0  0  0  0
   -1.0238   -0.3982    2.7074 C   0  0  0  0  0  0  0  0  0  0  0  0
    0.0861   -0.0054    3.4557 C   0  0  0  0  0  0  0  0  0  0  0  0
   -0.0010    0.2074    5.1943 Cl  0  0  0  0  0  0  0  0  0  0  0  0
    1.2612    0.2084    2.8007 N   0  0  0  0  0  0  0  0  0  0  0  0
    1.3721    0.0425    1.4469 C   0  0  0  0  0  0  0  0  0  0  0  0
    2.5897    0.2627    0.7952 O   0  0  0  0  0  0  0  0  0  0  0  0
    3.7690    0.6676    1.4816 C   0  0  0  0  0  0  0  0  0  0  0  0
    4.8891    0.8153    0.4944 C   0  0  0  0  0  0  0  0  0  0  0  0
    5.6990   -0.2861    0.1724 C   0  0  0  0  0  0  0  0  0  0  0  0
    6.7185   -0.1569   -0.7762 C   0  0  0  0  0  0  0  0  0  0  0  0
    6.9280    1.0676   -1.4175 C   0  0  0  0  0  0  0  0  0  0  0  0
    7.9157    1.1906   -2.3381 F   0  0  0  0  0  0  0  0  0  0  0  0
    6.1144    2.1633   -1.1143 C   0  0  0  0  0  0  0  0  0  0  0  0
    5.0939    2.0378   -0.1663 C   0  0  0  0  0  0  0  0  0  0  0  0
    0.2449   -0.3563    0.7104 C   0  0  0  0  0  0  0  0  0  0  0  0
    0.3159   -0.5300   -0.5361 O   0  0  0  0  0  0  0  0  0  0  0  0
   -0.9268   -0.5514    1.3757 N   0  0  0  0  0  0  0  0  0  0  0  0
   -2.7914    0.0272   -0.1165 C   0  0  0  0  0  0  0  0  0  0  0  0
   -2.5197    1.2496    0.0393 O   0  0  0  0  0  0  0  0  0  0  0  0
   -3.6883   -0.3693   -1.1691 N   0  0  0  0  0  0  0  0  0  0  0  0
   -4.2510    0.5733   -2.1200 C   0  0  0  0  0  0  0  0  0  0  0  0
   -5.0236   -0.2697   -3.1257 C   0  0  0  0  0  0  0  0  0  0  0  0
   -5.2212   -1.6314   -2.4648 C   0  0  0  0  0  0  0  0  0  0  0  0
   -4.1525   -1.7294   -1.3844 C   0  0  0  0  0  0  0  0  0  0  0  0
   -2.1130   -1.9889    0.3819 H   0  0  0  0  0  0  0  0  0  0  0  0
   -4.1048   -1.3648    2.1140 H   0  0  0  0  0  0  0  0  0  0  0  0
   -2.7339   -0.6904    4.1771 H   0  0  0  0  0  0  0  0  0  0  0  0
    3.5875    1.6342    2.0010 H   0  0  0  0  0  0  0  0  0  0  0  0
    4.0346   -0.0908    2.2505 H   0  0  0  0  0  0  0  0  0  0  0  0
    5.5408   -1.2430    0.6545 H   0  0  0  0  0  0  0  0  0  0  0  0
    7.3431   -1.0077   -1.0161 H   0  0  0  0  0  0  0  0  0  0  0  0
    6.2711    3.1095   -1.6161 H   0  0  0  0  0  0  0  0  0  0  0  0
    4.4642    2.8916    0.0520 H   0  0  0  0  0  0  0  0  0  0  0  0
   -4.9339    1.2732   -1.5912 H   0  0  0  0  0  0  0  0  0  0  0  0
   -3.4422    1.1431   -2.6270 H   0  0  0  0  0  0  0  0  0  0  0  0
   -5.9976    0.1996   -3.3845 H   0  0  0  0  0  0  0  0  0  0  0  0
   -4.4197   -0.3920   -4.0517 H   0  0  0  0  0  0  0  0  0  0  0  0
   -5.1280   -2.4570   -3.2034 H   0  0  0  0  0  0  0  0  0  0  0  0
   -6.2295   -1.6725   -1.9968 H   0  0  0  0  0  0  0  0  0  0  0  0
   -4.5837   -2.1479   -0.4492 H   0  0  0  0  0  0  0  0  0  0  0  0
   -3.3074   -2.3618   -1.7325 H   0  0  0  0  0  0  0  0  0  0  0  0
  1  2  1  0
  2  3  2  0
  3  4  1  0
  4  5  2  0
  5  6  1  0
  5  7  1  0
  7  8  2  0
  8  9  1  0
  9 10  1  0
 10 11  1  0
 11 12  2  0
 12 13  1  0
 13 14  2  0
 14 15  1  0
 14 16  1  0
 16 17  2  0
  8 18  1  0
 18 19  2  0
 18 20  1  0
  1 21  1  0
 21 22  2  0
 21 23  1  0
 23 24  1  0
 24 25  1  0
 25 26  1  0
 26 27  1  0
 20  1  1  0
 27 23  1  0
 20  4  1  0
 17 11  1  0
  1 28  1  6
  2 29  1  0
  3 30  1  0
 10 31  1  0
 10 32  1  0
 12 33  1  0
 13 34  1  0
 16 35  1  0
 17 36  1  0
 24 37  1  0
 24 38  1  0
 25 39  1  0
 25 40  1  0
 26 41  1  0
 26 42  1  0
 27 43  1  0
 27 44  1  0
M  END
$$$$
