
     RDKit          3D

 32 34  0  0  0  0  0  0  0  0999 V2000
    0.7177   -0.0656   -0.6945 C   0  0  2  0  0  0  0  0  0  0  0  0
    0.3986    1.4011   -1.0327 C   0  0  0  0  0  0  0  0  0  0  0  0
   -1.0298    1.5565   -1.3010 N   0  0  0  0  0  0  0  0  0  0  0  0
   -2.0005    0.8437   -0.5260 C   0  0  0  0  0  0  0  0  0  0  0  0
   -1.5902   -0.2101    0.3038 C   0  0  0  0  0  0  0  0  0  0  0  0
   -0.1928   -0.5508    0.3510 N   0  0  0  0  0  0  0  0  0  0  0  0
   -2.5740   -0.8801    1.0621 C   0  0  0  0  0  0  0  0  0  0  0  0
   -2.2622   -1.9911    1.9091 N   0  0  0  0  0  0  0  0  0  0  0  0
   -3.8705   -0.4800    0.9653 N   0  0  0  0  0  0  0  0  0  0  0  0
   -4.2434    0.5419    0.1516 C   0  0  0  0  0  0  0  0  0  0  0  0
   -5.6133    0.9285    0.0740 N   0  0  0  0  0  0  0  0  0  0  0  0
   -3.3109    1.1926   -0.5897 N   0  0  0  0  0  0  0  0  0  0  0  0
    2.1648   -0.2121   -0.2713 C   0  0  0  0  0  0  0  0  0  0  0  0
    2.6074    0.2925    0.9662 C   0  0  0  0  0  0  0  0  0  0  0  0
    3.9491    0.1713    1.3398 C   0  0  0  0  0  0  0  0  0  0  0  0
    4.8621   -0.4465    0.4817 C   0  0  0  0  0  0  0  0  0  0  0  0
    4.4354   -0.9418   -0.7530 C   0  0  0  0  0  0  0  0  0  0  0  0
    3.0944   -0.8233   -1.1313 C   0  0  0  0  0  0  0  0  0  0  0  0
    0.5304   -0.6705   -1.6099 H   0  0  0  0  0  0  0  0  0  0  0  0
    0.6716    2.0607   -0.1807 H   0  0  0  0  0  0  0  0  0  0  0  0
    0.9813    1.7196   -1.9243 H   0  0  0  0  0  0  0  0  0  0  0  0
   -1.3451    2.2812   -1.9843 H   0  0  0  0  0  0  0  0  0  0  0  0
    0.1833   -1.1621    1.1078 H   0  0  0  0  0  0  0  0  0  0  0  0
   -3.0147   -2.4194    2.4929 H   0  0  0  0  0  0  0  0  0  0  0  0
   -1.3293   -2.4543    1.9180 H   0  0  0  0  0  0  0  0  0  0  0  0
   -6.3358    0.4315    0.6408 H   0  0  0  0  0  0  0  0  0  0  0  0
   -5.9068    1.7124   -0.5502 H   0  0  0  0  0  0  0  0  0  0  0  0
    1.9132    0.7783    1.6407 H   0  0  0  0  0  0  0  0  0  0  0  0
    4.2815    0.5584    2.2944 H   0  0  0  0  0  0  0  0  0  0  0  0
    5.9006   -0.5388    0.7721 H   0  0  0  0  0  0  0  0  0  0  0  0
    5.1448   -1.4162   -1.4188 H   0  0  0  0  0  0  0  0  0  0  0  0
    2.7832   -1.2075   -2.0947 H   0  0  0  0  0  0  0  0  0  0  0  0
  1  2  1  0
  2  3  1  0
  3  4  1  0
  4  5  2  0
  5  6  1  0
  5  7  1  0
  7  8  1  0
  7  9  2  0
  9 10  1  0
 10 11  1  0
 10 12  2  0
  1 13  1  0
 13 14  2  0
 14 15  1  0
 15 16  2  0
 16 17  1  0
 17 18  2  0
  6  1  1  0
 18 13  1  0
 12  4  1  0
  1 19  1  6
  2 20  1  0
  2 21  1  0
  3 22  1  0
  6 23  1  0
  8 24  1  0
  8 25  1  0
 11 26  1  0
 11 27  1  0
 14 28  1  0
 15 29  1  0
 16 30  1  0
 17 31  1  0
 18 32  1  0
M  END
$$$$
