
     RDKit          3D

 44 47  0  0  0  0  0  0  0  0999 V2000
   -3.4487   -1.2930   -0.1999 C   0  0  1  0  0  0  0  0  0  0  0  0
   -4.4425   -1.2271   -1.3740 C   0  0  0  0  0  0  0  0  0  0  0  0
   -5.7771   -1.6406   -0.9474 N   0  0  0  0  0  0  0  0  0  0  0  0
   -2.0938   -0.9587   -0.6546 N   0  0  0  0  0  0  0  0  0  0  0  0
   -0.9400   -1.1918    0.1703 C   0  0  0  0  0  0  0  0  0  0  0  0
   -1.0717   -1.7798    1.2781 O   0  0  0  0  0  0  0  0  0  0  0  0
    0.4058   -0.7562   -0.2486 C   0  0  0  0  0  0  0  0  0  0  0  0
    0.7434   -0.0406   -1.3959 C   0  0  0  0  0  0  0  0  0  0  0  0
    2.1148    0.2214   -1.5065 C   0  0  0  0  0  0  0  0  0  0  0  0
    2.8641   -0.2733   -0.4425 C   0  0  0  0  0  0  0  0  0  0  0  0
    1.8172   -1.0563    0.6184 S   0  0  0  0  0  0  0  0  0  0  0  0
    4.3315   -0.1934   -0.2860 C   0  0  0  0  0  0  0  0  0  0  0  0
    5.0787    0.9258   -0.6811 C   0  0  0  0  0  0  0  0  0  0  0  0
    4.7162    2.1606   -1.1886 C   0  0  0  0  0  0  0  0  0  0  0  0
    5.9068    2.8668   -1.3345 C   0  0  0  0  0  0  0  0  0  0  0  0
    6.9602    2.1220   -0.9312 N   0  0  0  0  0  0  0  0  0  0  0  0
    6.4394    0.9526   -0.5323 C   0  0  0  0  0  0  0  0  0  0  0  0
    7.1317   -0.0808    0.0060 N   0  0  0  0  0  0  0  0  0  0  0  0
    6.4539   -1.1931    0.4143 C   0  0  0  0  0  0  0  0  0  0  0  0
    5.0502   -1.2676    0.2832 C   0  0  0  0  0  0  0  0  0  0  0  0
   -3.8708   -0.3551    0.9130 C   0  0  0  0  0  0  0  0  0  0  0  0
   -3.7381    1.0385    0.7673 C   0  0  0  0  0  0  0  0  0  0  0  0
   -4.1425    1.8976    1.7934 C   0  0  0  0  0  0  0  0  0  0  0  0
   -4.6880    1.3763    2.9692 C   0  0  0  0  0  0  0  0  0  0  0  0
   -4.8322   -0.0052    3.1201 C   0  0  0  0  0  0  0  0  0  0  0  0
   -4.4288   -0.8687    2.0969 C   0  0  0  0  0  0  0  0  0  0  0  0
   -3.4384   -2.3441    0.1677 H   0  0  0  0  0  0  0  0  0  0  0  0
   -4.0918   -1.8939   -2.1938 H   0  0  0  0  0  0  0  0  0  0  0  0
   -4.4891   -0.1899   -1.7735 H   0  0  0  0  0  0  0  0  0  0  0  0
   -5.7512   -2.6652   -0.7381 H   0  0  0  0  0  0  0  0  0  0  0  0
   -6.4229   -1.5195   -1.7608 H   0  0  0  0  0  0  0  0  0  0  0  0
   -1.9705   -0.5404   -1.6029 H   0  0  0  0  0  0  0  0  0  0  0  0
    0.0355    0.2845   -2.1446 H   0  0  0  0  0  0  0  0  0  0  0  0
    2.5424    0.7295   -2.3599 H   0  0  0  0  0  0  0  0  0  0  0  0
    3.7221    2.5301   -1.3967 H   0  0  0  0  0  0  0  0  0  0  0  0
    5.9911    3.8819   -1.6995 H   0  0  0  0  0  0  0  0  0  0  0  0
    7.9641    2.4082   -0.9119 H   0  0  0  0  0  0  0  0  0  0  0  0
    6.9986   -2.0230    0.8442 H   0  0  0  0  0  0  0  0  0  0  0  0
    4.5372   -2.1638    0.6089 H   0  0  0  0  0  0  0  0  0  0  0  0
   -3.3204    1.4583   -0.1393 H   0  0  0  0  0  0  0  0  0  0  0  0
   -4.0344    2.9681    1.6762 H   0  0  0  0  0  0  0  0  0  0  0  0
   -5.0013    2.0428    3.7623 H   0  0  0  0  0  0  0  0  0  0  0  0
   -5.2585   -0.4075    4.0300 H   0  0  0  0  0  0  0  0  0  0  0  0
   -4.5522   -1.9364    2.2286 H   0  0  0  0  0  0  0  0  0  0  0  0
  1  2  1  0
  2  3  1  0
  1  4  1  0
  4  5  1  0
  5  6  2  0
  5  7  1  0
  7  8  2  0
  8  9  1  0
  9 10  2  0
 10 11  1  0
 10 12  1  0
 12 13  2  0
 13 14  1  0
 14 15  2  0
 15 16  1  0
 16 17  1  0
 17 18  2  0
 18 19  1  0
 19 20  2  0
  1 21  1  0
 21 22  2  0
 22 23  1  0
 23 24  2  0
 24 25  1  0
 25 26  2  0
 11  7  1  0
 20 12  1  0
 26 21  1  0
 17 13  1  0
  1 27  1  1
  2 28  1  0
  2 29  1  0
  3 30  1  0
  3 31  1  0
  4 32  1  0
  8 33  1  0
  9 34  1  0
 14 35  1  0
 15 36  1  0
 16 37  1  0
 19 38  1  0
 20 39  1  0
 22 40  1  0
 23 41  1  0
 24 42  1  0
 25 43  1  0
 26 44  1  0
M  END
$$$$
