
     RDKit          3D

 25 26  0  0  0  0  0  0  0  0999 V2000
   -2.6784    1.9661    2.2670 O   0  0  0  0  0  0  0  0  0  0  0  0
   -2.9822    1.2054    1.3104 C   0  0  0  0  0  0  0  0  0  0  0  0
   -4.2741    1.0005    0.8811 O   0  0  0  0  0  0  0  0  0  0  0  0
   -4.3121    0.0963   -0.2193 C   0  0  0  0  0  0  0  0  0  0  0  0
   -2.8474   -0.3185   -0.4970 C   0  0  0  0  0  0  0  0  0  0  0  0
   -2.0523    0.4385    0.5183 C   0  0  0  0  0  0  0  0  0  0  0  0
   -0.7222    0.4319    0.6688 C   0  0  0  0  0  0  0  0  0  0  0  0
    0.1295   -0.3701   -0.1659 N   0  0  0  0  0  0  0  0  0  0  0  0
    1.5659   -0.3051   -0.1173 C   0  0  0  0  0  0  0  0  0  0  0  0
    2.3185   -1.4080   -0.5541 C   0  0  0  0  0  0  0  0  0  0  0  0
    3.7159   -1.3679   -0.5298 C   0  0  0  0  0  0  0  0  0  0  0  0
    4.3757   -0.2221   -0.0797 C   0  0  0  0  0  0  0  0  0  0  0  0
    3.6389    0.8877    0.3406 C   0  0  0  0  0  0  0  0  0  0  0  0
    2.2409    0.8522    0.3190 C   0  0  0  0  0  0  0  0  0  0  0  0
   -4.9286   -0.7890    0.0458 H   0  0  0  0  0  0  0  0  0  0  0  0
   -4.7505    0.6049   -1.1044 H   0  0  0  0  0  0  0  0  0  0  0  0
   -2.5434   -0.0247   -1.5249 H   0  0  0  0  0  0  0  0  0  0  0  0
   -2.7181   -1.4128   -0.3519 H   0  0  0  0  0  0  0  0  0  0  0  0
   -0.2882    1.0351    1.4557 H   0  0  0  0  0  0  0  0  0  0  0  0
   -0.3023   -1.0970   -0.7803 H   0  0  0  0  0  0  0  0  0  0  0  0
    1.8207   -2.3030   -0.9058 H   0  0  0  0  0  0  0  0  0  0  0  0
    4.2873   -2.2253   -0.8613 H   0  0  0  0  0  0  0  0  0  0  0  0
    5.4575   -0.1916   -0.0632 H   0  0  0  0  0  0  0  0  0  0  0  0
    4.1517    1.7798    0.6765 H   0  0  0  0  0  0  0  0  0  0  0  0
    1.6974    1.7369    0.6201 H   0  0  0  0  0  0  0  0  0  0  0  0
  1  2  2  0
  2  3  1  0
  3  4  1  0
  4  5  1  0
  5  6  1  0
  6  7  2  0
  7  8  1  0
  8  9  1  0
  9 10  2  0
 10 11  1  0
 11 12  2  0
 12 13  1  0
 13 14  2  0
  6  2  1  0
 14  9  1  0
  4 15  1  0
  4 16  1  0
  5 17  1  0
  5 18  1  0
  7 19  1  0
  8 20  1  0
 10 21  1  0
 11 22  1  0
 12 23  1  0
 13 24  1  0
 14 25  1  0
M  END
$$$$
