
     RDKit          3D

 41 43  0  0  0  0  0  0  0  0999 V2000
    7.0418    1.8328    0.0991 C   0  0  0  0  0  0  0  0  0  0  0  0
    6.7822    0.0906   -0.1433 S   0  0  0  0  0  6  0  0  0  0  0  0
    7.1312   -0.2774   -1.5582 O   0  0  0  0  0  0  0  0  0  0  0  0
    7.6696   -0.6851    0.7894 O   0  0  0  0  0  0  0  0  0  0  0  0
    5.0954   -0.2987    0.1771 C   0  0  0  0  0  0  0  0  0  0  0  0
    4.6815   -0.6168    1.4752 C   0  0  0  0  0  0  0  0  0  0  0  0
    3.3394   -0.9139    1.7437 C   0  0  0  0  0  0  0  0  0  0  0  0
    2.8956   -1.2454    3.4161 Cl  0  0  0  0  0  0  0  0  0  0  0  0
    2.3874   -0.8891    0.6965 C   0  0  0  0  0  0  0  0  0  0  0  0
    2.8151   -0.5552   -0.6013 C   0  0  0  0  0  0  0  0  0  0  0  0
    4.1557   -0.2610   -0.8575 C   0  0  0  0  0  0  0  0  0  0  0  0
    0.9576   -1.2143    0.9204 C   0  0  0  0  0  0  0  0  0  0  0  0
    0.6361   -2.0745    1.7843 O   0  0  0  0  0  0  0  0  0  0  0  0
   -0.0636   -0.5395    0.1663 N   0  0  0  0  0  0  0  0  0  0  0  0
   -1.4234   -0.9970    0.0667 C   0  0  0  0  0  0  0  0  0  0  0  0
   -1.7348   -2.3655    0.0505 C   0  0  0  0  0  0  0  0  0  0  0  0
   -3.0602   -2.7849   -0.0698 C   0  0  0  0  0  0  0  0  0  0  0  0
   -4.0944   -1.8502   -0.1853 C   0  0  0  0  0  0  0  0  0  0  0  0
   -5.7340   -2.4581   -0.3978 Cl  0  0  0  0  0  0  0  0  0  0  0  0
   -3.7975   -0.4687   -0.1902 C   0  0  0  0  0  0  0  0  0  0  0  0
   -2.4562   -0.0590   -0.0728 C   0  0  0  0  0  0  0  0  0  0  0  0
   -4.8644    0.5547   -0.2993 C   0  0  0  0  0  0  0  0  0  0  0  0
   -4.7160    1.6645   -1.1488 C   0  0  0  0  0  0  0  0  0  0  0  0
   -5.7327    2.6191   -1.2163 C   0  0  0  0  0  0  0  0  0  0  0  0
   -6.8823    2.4666   -0.4404 C   0  0  0  0  0  0  0  0  0  0  0  0
   -6.9979    1.3551    0.3960 C   0  0  0  0  0  0  0  0  0  0  0  0
   -5.9974    0.4358    0.4489 N   0  0  0  0  0  0  0  0  0  0  0  0
    6.7910    2.1029    1.1456 H   0  0  0  0  0  0  0  0  0  0  0  0
    8.1041    2.0821   -0.1018 H   0  0  0  0  0  0  0  0  0  0  0  0
    6.3911    2.4045   -0.5944 H   0  0  0  0  0  0  0  0  0  0  0  0
    5.4018   -0.6239    2.2838 H   0  0  0  0  0  0  0  0  0  0  0  0
    2.1136   -0.5384   -1.4262 H   0  0  0  0  0  0  0  0  0  0  0  0
    4.4595   -0.0051   -1.8645 H   0  0  0  0  0  0  0  0  0  0  0  0
    0.1720    0.3898   -0.2505 H   0  0  0  0  0  0  0  0  0  0  0  0
   -0.9538   -3.1123    0.1027 H   0  0  0  0  0  0  0  0  0  0  0  0
   -3.2820   -3.8445   -0.0890 H   0  0  0  0  0  0  0  0  0  0  0  0
   -2.2120    0.9966   -0.0605 H   0  0  0  0  0  0  0  0  0  0  0  0
   -3.8309    1.7834   -1.7613 H   0  0  0  0  0  0  0  0  0  0  0  0
   -5.6302    3.4751   -1.8707 H   0  0  0  0  0  0  0  0  0  0  0  0
   -7.6754    3.2016   -0.4867 H   0  0  0  0  0  0  0  0  0  0  0  0
   -7.8825    1.2232    1.0046 H   0  0  0  0  0  0  0  0  0  0  0  0
  1  2  1  0
  2  3  2  0
  2  4  2  0
  2  5  1  0
  5  6  2  0
  6  7  1  0
  7  8  1  0
  7  9  2  0
  9 10  1  0
 10 11  2  0
  9 12  1  0
 12 13  2  0
 12 14  1  0
 14 15  1  0
 15 16  2  0
 16 17  1  0
 17 18  2  0
 18 19  1  0
 18 20  1  0
 20 21  2  0
 20 22  1  0
 22 23  2  0
 23 24  1  0
 24 25  2  0
 25 26  1  0
 26 27  2  0
 11  5  1  0
 21 15  1  0
 27 22  1  0
  1 28  1  0
  1 29  1  0
  1 30  1  0
  6 31  1  0
 10 32  1  0
 11 33  1  0
 14 34  1  0
 16 35  1  0
 17 36  1  0
 21 37  1  0
 23 38  1  0
 24 39  1  0
 25 40  1  0
 26 41  1  0
M  END
$$$$
