
     RDKit          3D

 45 49  0  0  0  0  0  0  0  0999 V2000
   -5.0856    0.2745   -0.9623 O   0  0  0  0  0  0  0  0  0  0  0  0
   -3.7132    0.3757   -1.1734 C   0  0  0  0  0  0  0  0  0  0  0  0
   -3.1830    0.6859   -2.4444 C   0  0  0  0  0  0  0  0  0  0  0  0
   -1.7845    0.6969   -2.6474 C   0  0  0  0  0  0  0  0  0  0  0  0
   -0.9135    0.4625   -1.5653 C   0  0  0  0  0  0  0  0  0  0  0  0
    0.5635    0.2119   -1.7559 C   0  0  0  0  0  0  0  0  0  0  0  0
    1.3440   -0.0991   -0.4224 C   0  0  1  0  0  0  0  0  0  0  0  0
    1.8461    1.1238    0.2691 N   0  0  0  0  0  0  0  0  0  0  0  0
    2.9372    1.8385   -0.4278 C   0  0  0  0  0  0  0  0  0  0  0  0
    4.1777    0.9920   -0.5117 C   0  0  0  0  0  0  0  0  0  0  0  0
    4.8090    0.5691    0.5870 C   0  0  0  0  0  0  0  0  0  0  0  0
    0.7655    2.0387    0.6948 C   0  0  0  0  0  0  0  0  0  0  0  0
   -0.2727    1.3100    1.5757 C   0  0  0  0  0  0  0  0  0  0  0  0
   -0.7380   -0.0304    0.9448 C   0  0  1  0  0  0  0  0  0  0  0  0
   -1.8732   -0.7071    1.7906 C   0  0  1  0  0  0  0  0  0  0  0  0
   -3.0931   -0.3331    1.1337 O   0  0  0  0  0  0  0  0  0  0  0  0
   -2.8169    0.1425   -0.1316 C   0  0  0  0  0  0  0  0  0  0  0  0
   -1.4769    0.2715   -0.3105 C   0  0  0  0  0  0  0  0  0  0  0  0
   -1.8053   -2.2232    1.8424 C   0  0  0  0  0  0  0  0  0  0  0  0
   -2.6257   -2.8077    2.5332 O   0  0  0  0  0  0  0  0  0  0  0  0
   -0.7755   -3.0588    1.1106 C   0  0  0  0  0  0  0  0  0  0  0  0
    0.0588   -2.2874    0.0794 C   0  0  0  0  0  0  0  0  0  0  0  0
    0.5015   -0.9086    0.6163 C   0  0  1  0  0  0  0  0  0  0  0  0
    1.3165   -1.1052    1.7554 O   0  0  0  0  0  0  0  0  0  0  0  0
   -5.7469    0.4317   -1.7136 H   0  0  0  0  0  0  0  0  0  0  0  0
   -3.8462    0.8615   -3.2815 H   0  0  0  0  0  0  0  0  0  0  0  0
   -1.3880    0.8482   -3.6433 H   0  0  0  0  0  0  0  0  0  0  0  0
    1.0015    1.0625   -2.3096 H   0  0  0  0  0  0  0  0  0  0  0  0
    0.6646   -0.6719   -2.4224 H   0  0  0  0  0  0  0  0  0  0  0  0
    2.2145   -0.7361   -0.6945 H   0  0  0  0  0  0  0  0  0  0  0  0
    2.6353    2.1631   -1.4426 H   0  0  0  0  0  0  0  0  0  0  0  0
    3.2062    2.7616    0.1320 H   0  0  0  0  0  0  0  0  0  0  0  0
    4.5710    0.7250   -1.4879 H   0  0  0  0  0  0  0  0  0  0  0  0
    4.4385    0.8232    1.5756 H   0  0  0  0  0  0  0  0  0  0  0  0
    5.7034   -0.0389    0.4994 H   0  0  0  0  0  0  0  0  0  0  0  0
    0.2716    2.5013   -0.1871 H   0  0  0  0  0  0  0  0  0  0  0  0
    1.1919    2.8681    1.3005 H   0  0  0  0  0  0  0  0  0  0  0  0
    0.1783    1.1147    2.5728 H   0  0  0  0  0  0  0  0  0  0  0  0
   -1.1432    1.9838    1.7387 H   0  0  0  0  0  0  0  0  0  0  0  0
   -1.8789   -0.3193    2.8328 H   0  0  0  0  0  0  0  0  0  0  0  0
   -1.2946   -3.8904    0.5865 H   0  0  0  0  0  0  0  0  0  0  0  0
   -0.0983   -3.5181    1.8625 H   0  0  0  0  0  0  0  0  0  0  0  0
   -0.5400   -2.1851   -0.8500 H   0  0  0  0  0  0  0  0  0  0  0  0
    0.9560   -2.8906   -0.1800 H   0  0  0  0  0  0  0  0  0  0  0  0
    0.7407   -1.3271    2.5317 H   0  0  0  0  0  0  0  0  0  0  0  0
  1  2  1  0
  2  3  2  0
  3  4  1  0
  4  5  2  0
  5  6  1  0
  6  7  1  0
  7  8  1  0
  8  9  1  0
  9 10  1  0
 10 11  2  3
  8 12  1  0
 12 13  1  0
 14 13  1  1
 14 15  1  0
 15 16  1  0
 16 17  1  0
 17 18  2  0
 15 19  1  0
 19 20  2  0
 19 21  1  0
 21 22  1  0
 22 23  1  0
 23 24  1  1
 17  2  1  0
 18  5  1  0
 23  7  1  0
 18 14  1  0
 23 14  1  0
  1 25  1  0
  3 26  1  0
  4 27  1  0
  6 28  1  0
  6 29  1  0
  7 30  1  6
  9 31  1  0
  9 32  1  0
 10 33  1  0
 11 34  1  0
 11 35  1  0
 12 36  1  0
 12 37  1  0
 13 38  1  0
 13 39  1  0
 15 40  1  1
 21 41  1  0
 21 42  1  0
 22 43  1  0
 22 44  1  0
 24 45  1  0
M  END
$$$$
