
     RDKit          3D

 34 35  0  0  0  0  0  0  0  0999 V2000
   -5.5167   -2.3849    0.3286 N   0  0  0  0  0  0  0  0  0  0  0  0
   -5.2758   -1.2405   -0.9442 S   0  0  0  0  0  6  0  0  0  0  0  0
   -6.2542   -0.1083   -0.7990 O   0  0  0  0  0  0  0  0  0  0  0  0
   -5.5067   -1.9100   -2.2700 O   0  0  0  0  0  0  0  0  0  0  0  0
   -3.6308   -0.6182   -0.8676 C   0  0  0  0  0  0  0  0  0  0  0  0
   -3.3336    0.4849   -0.0583 C   0  0  0  0  0  0  0  0  0  0  0  0
   -2.0262    0.9748    0.0152 C   0  0  0  0  0  0  0  0  0  0  0  0
   -0.9919    0.3594   -0.7138 C   0  0  0  0  0  0  0  0  0  0  0  0
   -1.2999   -0.7451   -1.5285 C   0  0  0  0  0  0  0  0  0  0  0  0
   -2.6077   -1.2334   -1.5991 C   0  0  0  0  0  0  0  0  0  0  0  0
    0.3996    0.8679   -0.6522 C   0  0  0  0  0  0  0  0  0  0  0  0
    1.1800    0.6458   -1.6182 O   0  0  0  0  0  0  0  0  0  0  0  0
    0.8778    1.5914    0.4943 N   0  0  0  0  0  0  0  0  0  0  0  0
    2.2169    2.1744    0.5470 C   0  0  0  0  0  0  0  0  0  0  0  0
    3.2493    1.0965    0.7531 C   0  0  0  0  0  0  0  0  0  0  0  0
    4.1598    0.7524   -0.2648 C   0  0  0  0  0  0  0  0  0  0  0  0
    4.1432    1.3953   -1.4599 F   0  0  0  0  0  0  0  0  0  0  0  0
    5.0977   -0.2640   -0.0526 C   0  0  0  0  0  0  0  0  0  0  0  0
    5.1348   -0.9434    1.1681 C   0  0  0  0  0  0  0  0  0  0  0  0
    6.0450   -1.9281    1.3687 F   0  0  0  0  0  0  0  0  0  0  0  0
    4.2330   -0.6086    2.1813 C   0  0  0  0  0  0  0  0  0  0  0  0
    3.2934    0.4058    1.9760 C   0  0  0  0  0  0  0  0  0  0  0  0
   -5.3903   -1.8706    1.2290 H   0  0  0  0  0  0  0  0  0  0  0  0
   -6.5178   -2.6807    0.2883 H   0  0  0  0  0  0  0  0  0  0  0  0
   -4.1147    0.9696    0.5136 H   0  0  0  0  0  0  0  0  0  0  0  0
   -1.8376    1.8482    0.6244 H   0  0  0  0  0  0  0  0  0  0  0  0
   -0.5258   -1.2404   -2.1017 H   0  0  0  0  0  0  0  0  0  0  0  0
   -2.8198   -2.0927   -2.2223 H   0  0  0  0  0  0  0  0  0  0  0  0
    0.2865    1.6601    1.3520 H   0  0  0  0  0  0  0  0  0  0  0  0
    2.4060    2.7641   -0.3756 H   0  0  0  0  0  0  0  0  0  0  0  0
    2.2718    2.8868    1.3987 H   0  0  0  0  0  0  0  0  0  0  0  0
    5.7965   -0.5259   -0.8368 H   0  0  0  0  0  0  0  0  0  0  0  0
    4.2601   -1.1355    3.1264 H   0  0  0  0  0  0  0  0  0  0  0  0
    2.5979    0.6527    2.7687 H   0  0  0  0  0  0  0  0  0  0  0  0
  1  2  1  0
  2  3  2  0
  2  4  2  0
  2  5  1  0
  5  6  2  0
  6  7  1  0
  7  8  2  0
  8  9  1  0
  9 10  2  0
  8 11  1  0
 11 12  2  0
 11 13  1  0
 13 14  1  0
 14 15  1  0
 15 16  2  0
 16 17  1  0
 16 18  1  0
 18 19  2  0
 19 20  1  0
 19 21  1  0
 21 22  2  0
 10  5  1  0
 22 15  1  0
  1 23  1  0
  1 24  1  0
  6 25  1  0
  7 26  1  0
  9 27  1  0
 10 28  1  0
 13 29  1  0
 14 30  1  0
 14 31  1  0
 18 32  1  0
 21 33  1  0
 22 34  1  0
M  END
$$$$
