
     RDKit          3D

 72 74  0  0  0  0  0  0  0  0999 V2000
   -3.6513   -0.2550    0.3881 C   0  0  2  0  0  0  0  0  0  0  0  0
   -2.2595   -0.5766    0.3145 O   0  0  0  0  0  0  0  0  0  0  0  0
   -1.3208    0.4727    0.5767 C   0  0  2  0  0  0  0  0  0  0  0  0
   -1.7077    1.8465   -0.0636 C   0  0  0  0  0  0  0  0  0  0  0  0
   -2.8772    1.7080   -1.0279 C   0  0  2  0  0  0  0  0  0  0  0  0
   -3.2137    2.9783   -1.5250 O   0  0  0  0  0  0  0  0  0  0  0  0
   -4.0457    1.1159   -0.2447 C   0  0  1  0  0  0  0  0  0  0  0  0
   -5.2040    0.9548   -1.1335 N   0  0  0  0  0  0  0  0  0  0  0  0
   -6.3516    1.8150   -1.0930 C   0  0  0  0  0  0  0  0  0  0  0  0
   -7.4907    1.5760   -2.0287 C   0  0  0  0  0  0  0  0  0  0  0  0
   -6.3987    2.7870   -0.2914 O   0  0  0  0  0  0  0  0  0  0  0  0
   -0.0309    0.0770    0.1234 O   0  0  0  0  0  0  0  0  0  0  0  0
    0.0141   -0.4246   -1.5218 P   0  0  0  0  0  5  0  0  0  0  0  0
   -0.0978    0.9091   -2.5600 O   0  0  0  0  0  0  0  0  0  0  0  0
   -1.0985   -1.3987   -1.8398 O   0  0  0  0  0  0  0  0  0  0  0  0
    1.4962   -1.2179   -1.8030 O   0  0  0  0  0  0  0  0  0  0  0  0
    2.5406   -0.3079   -1.5480 C   0  0  0  0  0  0  0  0  0  0  0  0
    3.8873   -1.0132   -1.7308 C   0  0  1  0  0  0  0  0  0  0  0  0
    4.9350   -0.0965   -1.5174 O   0  0  0  0  0  0  0  0  0  0  0  0
    6.0539   -0.8411   -1.0771 C   0  0  2  0  0  0  0  0  0  0  0  0
    5.5853   -2.2188   -0.5680 C   0  0  2  0  0  0  0  0  0  0  0  0
    6.1806   -3.2723   -1.2906 O   0  0  0  0  0  0  0  0  0  0  0  0
    4.0788   -2.1644   -0.7408 C   0  0  2  0  0  0  0  0  0  0  0  0
    3.5158   -3.3834   -1.1699 O   0  0  0  0  0  0  0  0  0  0  0  0
    6.7772   -0.1038   -0.0194 N   0  0  0  0  0  0  0  0  0  0  0  0
    8.1435   -0.0454   -0.0719 C   0  0  0  0  0  0  0  0  0  0  0  0
    8.8666    0.6213    0.9147 C   0  0  0  0  0  0  0  0  0  0  0  0
    8.1718    1.2182    1.9640 C   0  0  0  0  0  0  0  0  0  0  0  0
    8.8707    1.9125    2.9973 N   0  0  0  0  0  0  0  0  0  0  0  0
    6.8188    1.1306    2.0042 N   0  0  0  0  0  0  0  0  0  0  0  0
    6.1197    0.4789    1.0384 C   0  0  0  0  0  0  0  0  0  0  0  0
    4.8649    0.4159    1.1351 O   0  0  0  0  0  0  0  0  0  0  0  0
   -1.1510    0.6097    2.0758 C   0  0  0  0  0  0  0  0  0  0  0  0
   -0.8160    1.8333    2.6521 O   0  0  0  0  0  0  0  0  0  0  0  0
   -1.1879   -0.4187    2.8039 O   0  0  0  0  0  0  0  0  0  0  0  0
   -4.2013   -0.4504    1.8350 C   0  0  2  0  0  0  0  0  0  0  0  0
   -3.7298   -1.6505    2.4008 O   0  0  0  0  0  0  0  0  0  0  0  0
   -5.7525   -0.3514    1.9660 C   0  0  2  0  0  0  0  0  0  0  0  0
   -6.1319   -0.3420    3.3205 O   0  0  0  0  0  0  0  0  0  0  0  0
   -6.5567   -1.4162    1.1915 C   0  0  0  0  0  0  0  0  0  0  0  0
   -6.3077   -2.7016    1.6897 O   0  0  0  0  0  0  0  0  0  0  0  0
   -4.1290   -1.0435   -0.2288 H   0  0  0  0  0  0  0  0  0  0  0  0
   -2.0061    2.5907    0.7074 H   0  0  0  0  0  0  0  0  0  0  0  0
   -0.8384    2.2997   -0.5854 H   0  0  0  0  0  0  0  0  0  0  0  0
   -2.5999    1.0286   -1.8664 H   0  0  0  0  0  0  0  0  0  0  0  0
   -3.6923    2.8362   -2.3832 H   0  0  0  0  0  0  0  0  0  0  0  0
   -4.2938    1.8314    0.5714 H   0  0  0  0  0  0  0  0  0  0  0  0
   -5.1519    0.2413   -1.8962 H   0  0  0  0  0  0  0  0  0  0  0  0
   -7.1764    1.8227   -3.0640 H   0  0  0  0  0  0  0  0  0  0  0  0
   -8.3620    2.2073   -1.7531 H   0  0  0  0  0  0  0  0  0  0  0  0
   -7.7934    0.5089   -1.9822 H   0  0  0  0  0  0  0  0  0  0  0  0
   -0.0215    0.5281   -3.4709 H   0  0  0  0  0  0  0  0  0  0  0  0
    2.4859    0.0928   -0.5097 H   0  0  0  0  0  0  0  0  0  0  0  0
    2.4986    0.5407   -2.2676 H   0  0  0  0  0  0  0  0  0  0  0  0
    3.9563   -1.3783   -2.7811 H   0  0  0  0  0  0  0  0  0  0  0  0
    6.7177   -0.9717   -1.9627 H   0  0  0  0  0  0  0  0  0  0  0  0
    5.8307   -2.3583    0.5083 H   0  0  0  0  0  0  0  0  0  0  0  0
    6.0135   -3.1210   -2.2578 H   0  0  0  0  0  0  0  0  0  0  0  0
    3.6242   -1.8974    0.2396 H   0  0  0  0  0  0  0  0  0  0  0  0
    3.7374   -3.5201   -2.1268 H   0  0  0  0  0  0  0  0  0  0  0  0
    8.6880   -0.5170   -0.8814 H   0  0  0  0  0  0  0  0  0  0  0  0
    9.9471    0.6684    0.8626 H   0  0  0  0  0  0  0  0  0  0  0  0
    8.3438    2.3553    3.7825 H   0  0  0  0  0  0  0  0  0  0  0  0
    9.9124    1.9881    2.9842 H   0  0  0  0  0  0  0  0  0  0  0  0
   -0.6584    1.9129    3.6496 H   0  0  0  0  0  0  0  0  0  0  0  0
   -3.7944    0.3781    2.4523 H   0  0  0  0  0  0  0  0  0  0  0  0
   -3.8322   -2.3719    1.7277 H   0  0  0  0  0  0  0  0  0  0  0  0
   -6.0629    0.6310    1.5564 H   0  0  0  0  0  0  0  0  0  0  0  0
   -5.8665   -1.2115    3.7182 H   0  0  0  0  0  0  0  0  0  0  0  0
   -6.3224   -1.3736    0.1069 H   0  0  0  0  0  0  0  0  0  0  0  0
   -7.6402   -1.1866    1.3028 H   0  0  0  0  0  0  0  0  0  0  0  0
   -6.8518   -3.3217    1.1379 H   0  0  0  0  0  0  0  0  0  0  0  0
  1  2  1  0
  2  3  1  0
  3  4  1  0
  4  5  1  0
  5  6  1  0
  5  7  1  0
  7  8  1  0
  8  9  1  0
  9 10  1  0
  9 11  2  0
  3 12  1  6
 12 13  1  0
 13 14  1  0
 13 15  2  0
 13 16  1  0
 16 17  1  0
 17 18  1  0
 18 19  1  0
 19 20  1  0
 20 21  1  0
 21 22  1  0
 21 23  1  0
 23 24  1  0
 20 25  1  0
 25 26  1  0
 26 27  2  0
 27 28  1  0
 28 29  1  0
 28 30  2  0
 30 31  1  0
 31 32  2  0
  3 33  1  0
 33 34  1  0
 33 35  2  0
  1 36  1  0
 36 37  1  0
 36 38  1  0
 38 39  1  0
 38 40  1  0
 40 41  1  0
  7  1  1  0
 23 18  1  0
 31 25  1  0
  1 42  1  6
  4 43  1  0
  4 44  1  0
  5 45  1  6
  6 46  1  0
  7 47  1  1
  8 48  1  0
 10 49  1  0
 10 50  1  0
 10 51  1  0
 14 52  1  0
 17 53  1  0
 17 54  1  0
 18 55  1  6
 20 56  1  6
 21 57  1  1
 22 58  1  0
 23 59  1  1
 24 60  1  0
 26 61  1  0
 27 62  1  0
 29 63  1  0
 29 64  1  0
 34 65  1  0
 36 66  1  1
 37 67  1  0
 38 68  1  6
 39 69  1  0
 40 70  1  0
 40 71  1  0
 41 72  1  0
M  END
$$$$
