
     RDKit          3D

 62 64  0  0  0  0  0  0  0  0999 V2000
   -2.1502    1.5872    1.5238 C   0  0  1  0  0  0  0  0  0  0  0  0
   -1.5578    0.4861    2.4088 C   0  0  0  0  0  0  0  0  0  0  0  0
   -0.5173   -0.2422    1.5739 C   0  0  1  0  0  0  0  0  0  0  0  0
   -1.1276   -1.3095    0.8951 O   0  0  0  0  0  0  0  0  0  0  0  0
    0.0207    0.7944    0.5697 C   0  0  2  0  0  0  0  0  0  0  0  0
    1.3493    1.4308    1.0475 C   0  0  0  0  0  0  0  0  0  0  0  0
    2.5464    0.4759    0.8912 C   0  0  0  0  0  0  0  0  0  0  0  0
    3.8707    1.1501    1.3139 C   0  0  1  0  0  0  0  0  0  0  0  0
    3.8148    1.5177    2.6710 O   0  0  0  0  0  0  0  0  0  0  0  0
    5.0979    0.2334    1.0598 C   0  0  0  0  0  0  0  0  0  0  0  0
    5.9013    0.5994   -0.2040 C   0  0  0  0  0  0  0  0  0  0  0  0
    5.1592    0.3858   -1.5368 C   0  0  0  0  0  0  0  0  0  0  0  0
    4.7777   -1.0755   -1.8365 C   0  0  0  0  0  0  0  0  0  0  0  0
    5.9932   -1.9845   -2.0139 C   0  0  0  0  0  0  0  0  0  0  0  0
   -1.0943    1.8657    0.4163 C   0  0  1  0  0  0  0  0  0  0  0  0
   -1.6846    1.8740   -1.0139 C   0  0  0  0  0  0  0  0  0  0  0  0
   -2.5629    0.6720   -1.2294 C   0  0  0  0  0  0  0  0  0  0  0  0
   -3.4856    0.3274   -0.2277 C   0  0  0  0  0  0  0  0  0  0  0  0
   -3.5605    1.2130    0.9924 C   0  0  0  0  0  0  0  0  0  0  0  0
   -4.3335   -0.7859   -0.3995 C   0  0  0  0  0  0  0  0  0  0  0  0
   -5.2599   -1.1004    0.6108 O   0  0  0  0  0  0  0  0  0  0  0  0
   -6.2176   -2.1572    0.5577 C   0  0  0  0  0  0  0  0  0  0  0  0
   -7.2984   -1.8401   -0.4268 C   0  0  0  0  0  0  0  0  0  0  0  0
   -7.8703   -0.5720   -0.4442 O   0  0  0  0  0  0  0  0  0  0  0  0
   -7.7133   -2.7293   -1.2171 O   0  0  0  0  0  0  0  0  0  0  0  0
   -4.2242   -1.5524   -1.5777 C   0  0  0  0  0  0  0  0  0  0  0  0
   -3.3013   -1.2044   -2.5669 C   0  0  0  0  0  0  0  0  0  0  0  0
   -2.4753   -0.0931   -2.3984 C   0  0  0  0  0  0  0  0  0  0  0  0
   -2.2715    2.5014    2.1483 H   0  0  0  0  0  0  0  0  0  0  0  0
   -1.0486    0.9583    3.2788 H   0  0  0  0  0  0  0  0  0  0  0  0
   -2.3212   -0.2166    2.8095 H   0  0  0  0  0  0  0  0  0  0  0  0
    0.2704   -0.6413    2.2522 H   0  0  0  0  0  0  0  0  0  0  0  0
   -0.3940   -1.8788    0.5438 H   0  0  0  0  0  0  0  0  0  0  0  0
    0.2195    0.2956   -0.4066 H   0  0  0  0  0  0  0  0  0  0  0  0
    1.2512    1.7559    2.1066 H   0  0  0  0  0  0  0  0  0  0  0  0
    1.5578    2.3337    0.4318 H   0  0  0  0  0  0  0  0  0  0  0  0
    2.3933   -0.4394    1.5002 H   0  0  0  0  0  0  0  0  0  0  0  0
    2.6085    0.1629   -0.1701 H   0  0  0  0  0  0  0  0  0  0  0  0
    3.9882    2.0877    0.7274 H   0  0  0  0  0  0  0  0  0  0  0  0
    3.7018    0.6858    3.2022 H   0  0  0  0  0  0  0  0  0  0  0  0
    5.8007    0.3366    1.9160 H   0  0  0  0  0  0  0  0  0  0  0  0
    4.8071   -0.8381    1.0447 H   0  0  0  0  0  0  0  0  0  0  0  0
    6.2015    1.6680   -0.1378 H   0  0  0  0  0  0  0  0  0  0  0  0
    6.8463    0.0166   -0.2101 H   0  0  0  0  0  0  0  0  0  0  0  0
    5.8081    0.7576   -2.3596 H   0  0  0  0  0  0  0  0  0  0  0  0
    4.2458    1.0156   -1.5586 H   0  0  0  0  0  0  0  0  0  0  0  0
    4.1931   -1.0910   -2.7817 H   0  0  0  0  0  0  0  0  0  0  0  0
    4.1209   -1.4872   -1.0436 H   0  0  0  0  0  0  0  0  0  0  0  0
    6.6979   -1.5534   -2.7564 H   0  0  0  0  0  0  0  0  0  0  0  0
    5.6598   -2.9786   -2.3793 H   0  0  0  0  0  0  0  0  0  0  0  0
    6.5161   -2.1324   -1.0464 H   0  0  0  0  0  0  0  0  0  0  0  0
   -0.6782    2.8837    0.5921 H   0  0  0  0  0  0  0  0  0  0  0  0
   -2.3014    2.7887   -1.1503 H   0  0  0  0  0  0  0  0  0  0  0  0
   -0.8639    1.9174   -1.7634 H   0  0  0  0  0  0  0  0  0  0  0  0
   -4.1639    0.7552    1.8047 H   0  0  0  0  0  0  0  0  0  0  0  0
   -4.0885    2.1462    0.6990 H   0  0  0  0  0  0  0  0  0  0  0  0
   -5.7179   -3.1198    0.3147 H   0  0  0  0  0  0  0  0  0  0  0  0
   -6.6812   -2.2631    1.5601 H   0  0  0  0  0  0  0  0  0  0  0  0
   -8.6100   -0.3447   -1.0979 H   0  0  0  0  0  0  0  0  0  0  0  0
   -4.8490   -2.4182   -1.7433 H   0  0  0  0  0  0  0  0  0  0  0  0
   -3.2283   -1.7978   -3.4692 H   0  0  0  0  0  0  0  0  0  0  0  0
   -1.7668    0.1666   -3.1749 H   0  0  0  0  0  0  0  0  0  0  0  0
  1  2  1  0
  2  3  1  0
  3  4  1  0
  3  5  1  0
  5  6  1  0
  6  7  1  0
  7  8  1  0
  8  9  1  0
  8 10  1  0
 10 11  1  0
 11 12  1  0
 12 13  1  0
 13 14  1  0
  5 15  1  0
 15 16  1  0
 16 17  1  0
 17 18  2  0
 18 19  1  0
 18 20  1  0
 20 21  1  0
 21 22  1  0
 22 23  1  0
 23 24  1  0
 23 25  2  0
 20 26  2  0
 26 27  1  0
 27 28  2  0
 15  1  1  0
 28 17  1  0
 19  1  1  0
  1 29  1  1
  2 30  1  0
  2 31  1  0
  3 32  1  1
  4 33  1  0
  5 34  1  6
  6 35  1  0
  6 36  1  0
  7 37  1  0
  7 38  1  0
  8 39  1  6
  9 40  1  0
 10 41  1  0
 10 42  1  0
 11 43  1  0
 11 44  1  0
 12 45  1  0
 12 46  1  0
 13 47  1  0
 13 48  1  0
 14 49  1  0
 14 50  1  0
 14 51  1  0
 15 52  1  1
 16 53  1  0
 16 54  1  0
 19 55  1  0
 19 56  1  0
 22 57  1  0
 22 58  1  0
 24 59  1  0
 26 60  1  0
 27 61  1  0
 28 62  1  0
M  END
$$$$
