
     RDKit          3D

 54 55  0  0  0  0  0  0  0  0999 V2000
    6.2440    2.8401   -0.8698 C   0  0  0  0  0  0  0  0  0  0  0  0
    5.9023    2.1397    0.4419 C   0  0  0  0  0  0  0  0  0  0  0  0
    6.1457    0.6286    0.3417 C   0  0  0  0  0  0  0  0  0  0  0  0
    5.8371   -0.0841    1.6636 C   0  0  0  0  0  0  0  0  0  0  0  0
    4.4721    0.0928    2.0417 O   0  0  0  0  0  0  0  0  0  0  0  0
    3.4044   -0.5678    1.4235 C   0  0  0  0  0  0  0  0  0  0  0  0
    3.6245   -1.4938    0.4525 N   0  0  0  0  0  0  0  0  0  0  0  0
    2.6074   -2.1533   -0.1601 C   0  0  0  0  0  0  0  0  0  0  0  0
    2.8976   -3.1086   -1.1407 C   0  0  0  0  0  0  0  0  0  0  0  0
    1.8653   -3.8199   -1.7545 C   0  0  0  0  0  0  0  0  0  0  0  0
    0.5395   -3.5891   -1.3840 C   0  0  0  0  0  0  0  0  0  0  0  0
    0.2355   -2.6356   -0.4080 C   0  0  0  0  0  0  0  0  0  0  0  0
    1.2634   -1.8859    0.2028 C   0  0  0  0  0  0  0  0  0  0  0  0
    1.0128   -0.9029    1.1926 C   0  0  0  0  0  0  0  0  0  0  0  0
    2.0987   -0.2667    1.8121 C   0  0  0  0  0  0  0  0  0  0  0  0
   -0.3522   -0.4977    1.5914 C   0  0  0  0  0  0  0  0  0  0  0  0
   -0.6497   -0.4473    2.8160 O   0  0  0  0  0  0  0  0  0  0  0  0
   -1.3139   -0.1059    0.6023 N   0  0  0  0  0  0  0  0  0  0  0  0
   -2.6996    0.1913    0.9622 C   0  0  0  0  0  0  0  0  0  0  0  0
   -3.5282    0.5264   -0.2825 C   0  0  0  0  0  0  0  0  0  0  0  0
   -4.9385    0.7763    0.0957 N   0  0  0  0  0  0  0  0  0  0  0  0
   -5.1485    2.1942    0.4692 C   0  0  0  0  0  0  0  0  0  0  0  0
   -6.2443    2.3058    1.5255 C   0  0  0  0  0  0  0  0  0  0  0  0
   -5.8636    0.3660   -0.9860 C   0  0  0  0  0  0  0  0  0  0  0  0
   -6.2056   -1.1157   -0.8559 C   0  0  0  0  0  0  0  0  0  0  0  0
    6.0574    3.9300   -0.7689 H   0  0  0  0  0  0  0  0  0  0  0  0
    7.3145    2.6850   -1.1229 H   0  0  0  0  0  0  0  0  0  0  0  0
    5.6111    2.4461   -1.6935 H   0  0  0  0  0  0  0  0  0  0  0  0
    6.5307    2.5681    1.2529 H   0  0  0  0  0  0  0  0  0  0  0  0
    4.8347    2.3351    0.6826 H   0  0  0  0  0  0  0  0  0  0  0  0
    5.5182    0.2007   -0.4693 H   0  0  0  0  0  0  0  0  0  0  0  0
    7.2111    0.4433    0.0827 H   0  0  0  0  0  0  0  0  0  0  0  0
    6.4848    0.3326    2.4641 H   0  0  0  0  0  0  0  0  0  0  0  0
    6.0709   -1.1673    1.5746 H   0  0  0  0  0  0  0  0  0  0  0  0
    3.9245   -3.3067   -1.4227 H   0  0  0  0  0  0  0  0  0  0  0  0
    2.0941   -4.5605   -2.5099 H   0  0  0  0  0  0  0  0  0  0  0  0
   -0.2561   -4.1562   -1.8500 H   0  0  0  0  0  0  0  0  0  0  0  0
   -0.8009   -2.5098   -0.1275 H   0  0  0  0  0  0  0  0  0  0  0  0
    1.9327    0.4836    2.5763 H   0  0  0  0  0  0  0  0  0  0  0  0
   -1.0056   -0.0281   -0.3941 H   0  0  0  0  0  0  0  0  0  0  0  0
   -3.1447   -0.6954    1.4641 H   0  0  0  0  0  0  0  0  0  0  0  0
   -2.7149    1.0441    1.6732 H   0  0  0  0  0  0  0  0  0  0  0  0
   -3.4444   -0.3412   -0.9746 H   0  0  0  0  0  0  0  0  0  0  0  0
   -3.0908    1.4035   -0.8127 H   0  0  0  0  0  0  0  0  0  0  0  0
   -5.4096    2.8144   -0.4185 H   0  0  0  0  0  0  0  0  0  0  0  0
   -4.2291    2.6383    0.9109 H   0  0  0  0  0  0  0  0  0  0  0  0
   -5.9728    1.7019    2.4173 H   0  0  0  0  0  0  0  0  0  0  0  0
   -6.3585    3.3665    1.8336 H   0  0  0  0  0  0  0  0  0  0  0  0
   -7.2165    1.9482    1.1281 H   0  0  0  0  0  0  0  0  0  0  0  0
   -5.4299    0.5709   -1.9913 H   0  0  0  0  0  0  0  0  0  0  0  0
   -6.8243    0.9242   -0.9312 H   0  0  0  0  0  0  0  0  0  0  0  0
   -5.2997   -1.7448   -0.9767 H   0  0  0  0  0  0  0  0  0  0  0  0
   -6.9383   -1.3995   -1.6406 H   0  0  0  0  0  0  0  0  0  0  0  0
   -6.6545   -1.3142    0.1405 H   0  0  0  0  0  0  0  0  0  0  0  0
  1  2  1  0
  2  3  1  0
  3  4  1  0
  4  5  1  0
  5  6  1  0
  6  7  2  0
  7  8  1  0
  8  9  2  0
  9 10  1  0
 10 11  2  0
 11 12  1  0
 12 13  2  0
 13 14  1  0
 14 15  2  0
 14 16  1  0
 16 17  2  0
 16 18  1  0
 18 19  1  0
 19 20  1  0
 20 21  1  0
 21 22  1  0
 22 23  1  0
 21 24  1  0
 24 25  1  0
 15  6  1  0
 13  8  1  0
  1 26  1  0
  1 27  1  0
  1 28  1  0
  2 29  1  0
  2 30  1  0
  3 31  1  0
  3 32  1  0
  4 33  1  0
  4 34  1  0
  9 35  1  0
 10 36  1  0
 11 37  1  0
 12 38  1  0
 15 39  1  0
 18 40  1  0
 19 41  1  0
 19 42  1  0
 20 43  1  0
 20 44  1  0
 22 45  1  0
 22 46  1  0
 23 47  1  0
 23 48  1  0
 23 49  1  0
 24 50  1  0
 24 51  1  0
 25 52  1  0
 25 53  1  0
 25 54  1  0
M  END
$$$$
