
     RDKit          3D

 66 67  0  0  0  0  0  0  0  0999 V2000
    0.7393   -3.6433   -2.6244 C   0  0  0  0  0  0  0  0  0  0  0  0
    0.8777   -3.0662   -1.2211 C   0  0  0  0  0  0  0  0  0  0  0  0
    0.0306   -1.9316   -1.0572 O   0  0  0  0  0  0  0  0  0  0  0  0
   -1.3542   -2.0213   -0.8787 C   0  0  0  0  0  0  0  0  0  0  0  0
   -1.9120   -3.1500   -0.7975 O   0  0  0  0  0  0  0  0  0  0  0  0
   -2.1485   -0.7754   -0.7449 C   0  0  0  0  0  0  0  0  0  0  0  0
   -3.3793   -0.6409   -1.2900 C   0  0  0  0  0  0  0  0  0  0  0  0
   -4.0367   -1.7421   -2.0822 C   0  0  0  0  0  0  0  0  0  0  0  0
   -4.0811    0.6019   -1.1515 N   0  0  0  0  0  0  0  0  0  0  0  0
   -3.4301    1.7947   -0.6925 C   0  0  0  0  0  0  0  0  0  0  0  0
   -4.1693    3.1017   -0.8256 C   0  0  0  0  0  0  0  0  0  0  0  0
   -2.1856    1.7141   -0.1675 C   0  0  0  0  0  0  0  0  0  0  0  0
   -1.5507    0.3498    0.0870 C   0  0  0  0  0  0  0  0  0  0  0  0
   -1.6244   -0.0254    1.5668 C   0  0  0  0  0  0  0  0  0  0  0  0
   -2.8674    0.0672    2.2306 C   0  0  0  0  0  0  0  0  0  0  0  0
   -3.0089   -0.3457    3.5552 C   0  0  0  0  0  0  0  0  0  0  0  0
   -1.9232   -0.8849    4.2387 C   0  0  0  0  0  0  0  0  0  0  0  0
   -0.6906   -1.0126    3.6006 C   0  0  0  0  0  0  0  0  0  0  0  0
   -0.5187   -0.5802    2.2759 C   0  0  0  0  0  0  0  0  0  0  0  0
    0.8121   -0.7952    1.6732 C   0  0  0  0  0  0  0  0  0  0  0  0
    1.5921    0.2219    1.2969 C   0  0  0  0  0  0  0  0  0  0  0  0
    2.9436    0.0125    0.7583 C   0  0  0  0  0  0  0  0  0  0  0  0
    3.6097    1.0142    0.3845 O   0  0  0  0  0  0  0  0  0  0  0  0
    3.4744   -1.2850    0.6706 O   0  0  0  0  0  0  0  0  0  0  0  0
    4.7730   -1.6407    0.1729 C   0  0  0  0  0  0  0  0  0  0  0  0
    4.9013   -3.1678    0.2857 C   0  0  0  0  0  0  0  0  0  0  0  0
    5.8780   -0.9861    1.0240 C   0  0  0  0  0  0  0  0  0  0  0  0
    4.9162   -1.2365   -1.3068 C   0  0  0  0  0  0  0  0  0  0  0  0
   -1.4327    2.9222    0.2532 C   0  0  0  0  0  0  0  0  0  0  0  0
   -0.7042    2.8787    1.2812 O   0  0  0  0  0  0  0  0  0  0  0  0
   -1.5067    4.0972   -0.5013 O   0  0  0  0  0  0  0  0  0  0  0  0
   -0.8127    5.2872   -0.1436 C   0  0  0  0  0  0  0  0  0  0  0  0
   -1.1214    6.3781   -1.1559 C   0  0  0  0  0  0  0  0  0  0  0  0
    1.4473   -4.4891   -2.7510 H   0  0  0  0  0  0  0  0  0  0  0  0
    0.9725   -2.8625   -3.3789 H   0  0  0  0  0  0  0  0  0  0  0  0
   -0.2935   -4.0141   -2.7908 H   0  0  0  0  0  0  0  0  0  0  0  0
    0.6438   -3.8392   -0.4573 H   0  0  0  0  0  0  0  0  0  0  0  0
    1.9275   -2.7436   -1.0733 H   0  0  0  0  0  0  0  0  0  0  0  0
   -3.3322   -2.1556   -2.8348 H   0  0  0  0  0  0  0  0  0  0  0  0
   -4.9216   -1.3585   -2.6316 H   0  0  0  0  0  0  0  0  0  0  0  0
   -4.3777   -2.5468   -1.3980 H   0  0  0  0  0  0  0  0  0  0  0  0
   -5.0662    0.6648   -1.4942 H   0  0  0  0  0  0  0  0  0  0  0  0
   -5.2524    2.9249   -0.9916 H   0  0  0  0  0  0  0  0  0  0  0  0
   -4.0722    3.7048    0.1020 H   0  0  0  0  0  0  0  0  0  0  0  0
   -3.7749    3.6712   -1.6929 H   0  0  0  0  0  0  0  0  0  0  0  0
   -0.4979    0.4568   -0.2371 H   0  0  0  0  0  0  0  0  0  0  0  0
   -3.7410    0.4473    1.7186 H   0  0  0  0  0  0  0  0  0  0  0  0
   -3.9689   -0.2614    4.0480 H   0  0  0  0  0  0  0  0  0  0  0  0
   -2.0390   -1.2151    5.2630 H   0  0  0  0  0  0  0  0  0  0  0  0
    0.1387   -1.4479    4.1458 H   0  0  0  0  0  0  0  0  0  0  0  0
    1.1948   -1.8085    1.6498 H   0  0  0  0  0  0  0  0  0  0  0  0
    1.2335    1.2372    1.3936 H   0  0  0  0  0  0  0  0  0  0  0  0
    4.1139   -3.6691   -0.3165 H   0  0  0  0  0  0  0  0  0  0  0  0
    4.7807   -3.4870    1.3434 H   0  0  0  0  0  0  0  0  0  0  0  0
    5.8941   -3.5125   -0.0769 H   0  0  0  0  0  0  0  0  0  0  0  0
    6.8789   -1.3641    0.7227 H   0  0  0  0  0  0  0  0  0  0  0  0
    5.8852    0.1159    0.9015 H   0  0  0  0  0  0  0  0  0  0  0  0
    5.7207   -1.2174    2.0994 H   0  0  0  0  0  0  0  0  0  0  0  0
    4.0772   -1.6546   -1.9030 H   0  0  0  0  0  0  0  0  0  0  0  0
    4.9131   -0.1342   -1.4272 H   0  0  0  0  0  0  0  0  0  0  0  0
    5.8723   -1.6190   -1.7250 H   0  0  0  0  0  0  0  0  0  0  0  0
    0.2820    5.0944   -0.1319 H   0  0  0  0  0  0  0  0  0  0  0  0
   -1.1365    5.6213    0.8661 H   0  0  0  0  0  0  0  0  0  0  0  0
   -0.5843    7.3097   -0.8793 H   0  0  0  0  0  0  0  0  0  0  0  0
   -0.7945    6.0594   -2.1683 H   0  0  0  0  0  0  0  0  0  0  0  0
   -2.2132    6.5815   -1.1725 H   0  0  0  0  0  0  0  0  0  0  0  0
  1  2  1  0
  2  3  1  0
  3  4  1  0
  4  5  2  0
  4  6  1  0
  6  7  2  0
  7  8  1  0
  7  9  1  0
  9 10  1  0
 10 11  1  0
 10 12  2  0
 12 13  1  0
 13 14  1  0
 14 15  2  0
 15 16  1  0
 16 17  2  0
 17 18  1  0
 18 19  2  0
 19 20  1  0
 20 21  2  0
 21 22  1  0
 22 23  2  0
 22 24  1  0
 24 25  1  0
 25 26  1  0
 25 27  1  0
 25 28  1  0
 12 29  1  0
 29 30  2  0
 29 31  1  0
 31 32  1  0
 32 33  1  0
 13  6  1  0
 19 14  1  0
  1 34  1  0
  1 35  1  0
  1 36  1  0
  2 37  1  0
  2 38  1  0
  8 39  1  0
  8 40  1  0
  8 41  1  0
  9 42  1  0
 11 43  1  0
 11 44  1  0
 11 45  1  0
 13 46  1  0
 15 47  1  0
 16 48  1  0
 17 49  1  0
 18 50  1  0
 20 51  1  0
 21 52  1  0
 26 53  1  0
 26 54  1  0
 26 55  1  0
 27 56  1  0
 27 57  1  0
 27 58  1  0
 28 59  1  0
 28 60  1  0
 28 61  1  0
 32 62  1  0
 32 63  1  0
 33 64  1  0
 33 65  1  0
 33 66  1  0
M  END
$$$$
