
     RDKit          3D

 46 49  0  0  0  0  0  0  0  0999 V2000
    4.6090    0.1671   -0.0589 C   0  0  1  0  0  0  0  0  0  0  0  0
    4.2154    1.5837   -0.4895 C   0  0  0  0  0  0  0  0  0  0  0  0
    4.3731   -0.0028    1.3143 O   0  0  0  0  0  0  0  0  0  0  0  0
    3.8444   -0.8985   -0.8606 C   0  0  0  0  0  0  0  0  0  0  0  0
    2.4027   -0.8414   -0.6065 N   0  0  0  0  0  0  0  0  0  0  0  0
    1.7912   -1.4768    0.5291 C   0  0  0  0  0  0  0  0  0  0  0  0
    0.4300   -1.3244    0.8367 C   0  0  0  0  0  0  0  0  0  0  0  0
   -0.1146   -2.0661    1.8502 C   0  0  0  0  0  0  0  0  0  0  0  0
   -1.4315   -1.8501    1.9831 N   0  0  0  0  0  0  0  0  0  0  0  0
   -1.7495   -0.9268    1.0459 C   0  0  0  0  0  0  0  0  0  0  0  0
   -0.6109   -0.5664    0.3105 C   0  0  0  0  0  0  0  0  0  0  0  0
   -0.5453    0.4312   -0.7704 C   0  0  0  0  0  0  0  0  0  0  0  0
    0.2328    1.5879   -0.6127 C   0  0  0  0  0  0  0  0  0  0  0  0
    0.2821    2.5449   -1.6306 C   0  0  0  0  0  0  0  0  0  0  0  0
   -0.4555    2.3578   -2.8033 C   0  0  0  0  0  0  0  0  0  0  0  0
   -1.2463    1.2151   -2.9578 C   0  0  0  0  0  0  0  0  0  0  0  0
   -1.2952    0.2544   -1.9429 C   0  0  0  0  0  0  0  0  0  0  0  0
   -3.1189   -0.3887    0.8812 C   0  0  0  0  0  0  0  0  0  0  0  0
   -4.2240   -1.2505    0.9850 C   0  0  0  0  0  0  0  0  0  0  0  0
   -5.5230   -0.7553    0.8344 C   0  0  0  0  0  0  0  0  0  0  0  0
   -5.7305    0.6041    0.5890 C   0  0  0  0  0  0  0  0  0  0  0  0
   -4.6395    1.4719    0.5001 C   0  0  0  0  0  0  0  0  0  0  0  0
   -3.3389    0.9813    0.6504 C   0  0  0  0  0  0  0  0  0  0  0  0
    0.6241   -2.9097    2.6090 N   0  0  0  0  0  0  0  0  0  0  0  0
    1.9553   -3.0295    2.3415 C   0  0  0  0  0  0  0  0  0  0  0  0
    2.5196   -2.3312    1.3100 N   0  0  0  0  0  0  0  0  0  0  0  0
    5.6948    0.0276   -0.2705 H   0  0  0  0  0  0  0  0  0  0  0  0
    4.8429    2.3275    0.0455 H   0  0  0  0  0  0  0  0  0  0  0  0
    3.1519    1.7836   -0.2491 H   0  0  0  0  0  0  0  0  0  0  0  0
    4.3726    1.7144   -1.5813 H   0  0  0  0  0  0  0  0  0  0  0  0
    5.0878    0.4935    1.7926 H   0  0  0  0  0  0  0  0  0  0  0  0
    4.0309   -0.7375   -1.9453 H   0  0  0  0  0  0  0  0  0  0  0  0
    4.2363   -1.9096   -0.6171 H   0  0  0  0  0  0  0  0  0  0  0  0
    1.8028   -0.4843   -1.3802 H   0  0  0  0  0  0  0  0  0  0  0  0
   -2.0685   -2.2869    2.6862 H   0  0  0  0  0  0  0  0  0  0  0  0
    0.7920    1.7488    0.3004 H   0  0  0  0  0  0  0  0  0  0  0  0
    0.8881    3.4333   -1.5081 H   0  0  0  0  0  0  0  0  0  0  0  0
   -0.4184    3.1003   -3.5898 H   0  0  0  0  0  0  0  0  0  0  0  0
   -1.8220    1.0744   -3.8634 H   0  0  0  0  0  0  0  0  0  0  0  0
   -1.9125   -0.6264   -2.0708 H   0  0  0  0  0  0  0  0  0  0  0  0
   -4.0813   -2.3086    1.1662 H   0  0  0  0  0  0  0  0  0  0  0  0
   -6.3691   -1.4265    0.9068 H   0  0  0  0  0  0  0  0  0  0  0  0
   -6.7366    0.9859    0.4733 H   0  0  0  0  0  0  0  0  0  0  0  0
   -4.8017    2.5271    0.3219 H   0  0  0  0  0  0  0  0  0  0  0  0
   -2.5113    1.6766    0.6086 H   0  0  0  0  0  0  0  0  0  0  0  0
    2.5653   -3.6950    2.9367 H   0  0  0  0  0  0  0  0  0  0  0  0
  1  2  1  0
  1  3  1  0
  1  4  1  0
  4  5  1  0
  5  6  1  0
  6  7  2  0
  7  8  1  0
  8  9  1  0
  9 10  1  0
 10 11  2  0
 11 12  1  0
 12 13  2  0
 13 14  1  0
 14 15  2  0
 15 16  1  0
 16 17  2  0
 10 18  1  0
 18 19  2  0
 19 20  1  0
 20 21  2  0
 21 22  1  0
 22 23  2  0
  8 24  2  0
 24 25  1  0
 25 26  2  0
 26  6  1  0
 11  7  1  0
 17 12  1  0
 23 18  1  0
  1 27  1  1
  2 28  1  0
  2 29  1  0
  2 30  1  0
  3 31  1  0
  4 32  1  0
  4 33  1  0
  5 34  1  0
  9 35  1  0
 13 36  1  0
 14 37  1  0
 15 38  1  0
 16 39  1  0
 17 40  1  0
 19 41  1  0
 20 42  1  0
 21 43  1  0
 22 44  1  0
 23 45  1  0
 25 46  1  0
M  END
$$$$
