
     RDKit          3D

 45 47  0  0  0  0  0  0  0  0999 V2000
    3.9085   -0.4593   -0.6635 C   0  0  2  0  0  0  0  0  0  0  0  0
    2.9626    0.7682   -0.8663 C   0  0  0  0  0  0  0  0  0  0  0  0
    1.6283    0.2107   -0.5258 C   0  0  0  0  0  0  0  0  0  0  0  0
    1.7503   -1.0949   -0.1484 C   0  0  0  0  0  0  0  0  0  0  0  0
    3.0603   -1.5152   -0.2015 O   0  0  0  0  0  0  0  0  0  0  0  0
    0.6484   -1.8559    0.2364 C   0  0  0  0  0  0  0  0  0  0  0  0
   -0.6176   -1.2456    0.2287 C   0  0  0  0  0  0  0  0  0  0  0  0
   -1.6870   -1.9387    0.5942 O   0  0  0  0  0  0  0  0  0  0  0  0
   -2.9137   -1.4263    0.6084 C   0  0  0  0  0  0  0  0  0  0  0  0
   -3.8633   -2.1626    0.9864 O   0  0  0  0  0  0  0  0  0  0  0  0
   -3.1505   -0.0824    0.2108 C   0  0  0  0  0  0  0  0  0  0  0  0
   -2.0231    0.6824   -0.1597 C   0  0  0  0  0  0  0  0  0  0  0  0
   -0.7504    0.1094   -0.1638 C   0  0  0  0  0  0  0  0  0  0  0  0
    0.3878    0.8495   -0.5440 C   0  0  0  0  0  0  0  0  0  0  0  0
   -4.5726    0.5241    0.2517 C   0  0  0  0  0  0  0  0  0  0  0  0
   -4.6763    1.9027   -0.4474 C   0  0  0  0  0  0  0  0  0  0  0  0
   -4.9814    0.7176    1.7272 C   0  0  0  0  0  0  0  0  0  0  0  0
   -5.5688   -0.4073   -0.4289 C   0  0  0  0  0  0  0  0  0  0  0  0
   -5.4233   -0.8113   -1.6974 C   0  0  0  0  0  0  0  0  0  0  0  0
    5.0859   -0.2373    0.3309 C   0  0  0  0  0  0  0  0  0  0  0  0
    5.9335   -1.5203    0.3951 C   0  0  0  0  0  0  0  0  0  0  0  0
    6.0006    0.9192   -0.1339 C   0  0  0  0  0  0  0  0  0  0  0  0
    4.5954    0.0073    1.6297 O   0  0  0  0  0  0  0  0  0  0  0  0
    4.3173   -0.7523   -1.6568 H   0  0  0  0  0  0  0  0  0  0  0  0
    2.9749    1.1059   -1.9249 H   0  0  0  0  0  0  0  0  0  0  0  0
    3.1830    1.6248   -0.1992 H   0  0  0  0  0  0  0  0  0  0  0  0
    0.7686   -2.8896    0.5344 H   0  0  0  0  0  0  0  0  0  0  0  0
   -2.1149    1.7197   -0.4475 H   0  0  0  0  0  0  0  0  0  0  0  0
    0.3128    1.8878   -0.8440 H   0  0  0  0  0  0  0  0  0  0  0  0
   -4.2978    1.8512   -1.4908 H   0  0  0  0  0  0  0  0  0  0  0  0
   -4.1036    2.6781    0.1057 H   0  0  0  0  0  0  0  0  0  0  0  0
   -5.7348    2.2421   -0.4852 H   0  0  0  0  0  0  0  0  0  0  0  0
   -5.0156   -0.2513    2.2684 H   0  0  0  0  0  0  0  0  0  0  0  0
   -4.2547    1.3785    2.2476 H   0  0  0  0  0  0  0  0  0  0  0  0
   -5.9892    1.1820    1.7994 H   0  0  0  0  0  0  0  0  0  0  0  0
   -6.4319   -0.7675    0.1253 H   0  0  0  0  0  0  0  0  0  0  0  0
   -4.5757   -0.4902   -2.2948 H   0  0  0  0  0  0  0  0  0  0  0  0
   -6.1560   -1.4765   -2.1425 H   0  0  0  0  0  0  0  0  0  0  0  0
    6.3407   -1.7776   -0.6068 H   0  0  0  0  0  0  0  0  0  0  0  0
    5.3244   -2.3750    0.7597 H   0  0  0  0  0  0  0  0  0  0  0  0
    6.7842   -1.3879    1.0981 H   0  0  0  0  0  0  0  0  0  0  0  0
    6.3956    0.7185   -1.1531 H   0  0  0  0  0  0  0  0  0  0  0  0
    5.4584    1.8864   -0.1560 H   0  0  0  0  0  0  0  0  0  0  0  0
    6.8594    1.0340    0.5619 H   0  0  0  0  0  0  0  0  0  0  0  0
    4.2214    0.9247    1.6622 H   0  0  0  0  0  0  0  0  0  0  0  0
  1  2  1  0
  2  3  1  0
  3  4  2  0
  4  5  1  0
  4  6  1  0
  6  7  2  0
  7  8  1  0
  8  9  1  0
  9 10  2  0
  9 11  1  0
 11 12  2  0
 12 13  1  0
 13 14  2  0
 11 15  1  0
 15 16  1  0
 15 17  1  0
 15 18  1  0
 18 19  2  3
  1 20  1  0
 20 21  1  0
 20 22  1  0
 20 23  1  0
  5  1  1  0
 13  7  1  0
 14  3  1  0
  1 24  1  6
  2 25  1  0
  2 26  1  0
  6 27  1  0
 12 28  1  0
 14 29  1  0
 16 30  1  0
 16 31  1  0
 16 32  1  0
 17 33  1  0
 17 34  1  0
 17 35  1  0
 18 36  1  0
 19 37  1  0
 19 38  1  0
 21 39  1  0
 21 40  1  0
 21 41  1  0
 22 42  1  0
 22 43  1  0
 22 44  1  0
 23 45  1  0
M  END
$$$$
