
     RDKit          3D

 34 33  0  0  0  0  0  0  0  0999 V2000
    3.4730    1.7113   -0.4563 N   0  0  0  0  0  0  0  0  0  0  0  0
    3.2052    0.8699    0.7133 C   0  0  1  0  0  0  0  0  0  0  0  0
    3.0744   -0.6267    0.3424 C   0  0  0  0  0  0  0  0  0  0  0  0
    1.9572   -0.9413   -0.6689 C   0  0  0  0  0  0  0  0  0  0  0  0
    0.5540   -0.6290   -0.1295 C   0  0  0  0  0  0  0  0  0  0  0  0
   -0.4784   -1.1031   -1.0545 N   0  0  0  0  0  0  0  0  0  0  0  0
   -1.8934   -0.9520   -0.8253 C   0  0  0  0  0  0  0  0  0  0  0  0
   -2.7949   -1.4529   -1.8249 N   0  0  0  0  0  0  0  0  0  0  0  0
   -2.3402   -0.3727    0.2638 N   0  0  0  0  0  4  0  0  0  0  0  0
   -3.7576   -0.1827    0.5855 C   0  0  0  0  0  0  0  0  0  0  0  0
   -4.3586    0.9018   -0.2661 C   0  0  0  0  0  0  0  0  0  0  0  0
   -5.6471    1.2306   -0.1510 C   0  0  0  0  0  0  0  0  0  0  0  0
    4.3135    1.0478    1.7102 C   0  0  0  0  0  0  0  0  0  0  0  0
    5.6402    0.9148    1.3100 O   0  0  0  0  0  0  0  0  0  0  0  0
    4.0443    1.2901    2.9175 O   0  0  0  0  0  0  0  0  0  0  0  0
    2.5924    1.8187   -1.0095 H   0  0  0  0  0  0  0  0  0  0  0  0
    4.1848    1.2519   -1.0706 H   0  0  0  0  0  0  0  0  0  0  0  0
    2.2619    1.2133    1.1923 H   0  0  0  0  0  0  0  0  0  0  0  0
    4.0372   -0.9836   -0.0857 H   0  0  0  0  0  0  0  0  0  0  0  0
    2.8927   -1.2169    1.2680 H   0  0  0  0  0  0  0  0  0  0  0  0
    2.1286   -0.3927   -1.6193 H   0  0  0  0  0  0  0  0  0  0  0  0
    2.0115   -2.0270   -0.9038 H   0  0  0  0  0  0  0  0  0  0  0  0
    0.4209   -1.1301    0.8539 H   0  0  0  0  0  0  0  0  0  0  0  0
    0.4421    0.4684   -0.0035 H   0  0  0  0  0  0  0  0  0  0  0  0
   -0.1825   -1.5716   -1.9413 H   0  0  0  0  0  0  0  0  0  0  0  0
   -2.4165   -1.9183   -2.6793 H   0  0  0  0  0  0  0  0  0  0  0  0
   -3.8314   -1.3675   -1.7528 H   0  0  0  0  0  0  0  0  0  0  0  0
   -1.6689   -0.0197    0.9804 H   0  0  0  0  0  0  0  0  0  0  0  0
   -4.3138   -1.1380    0.4682 H   0  0  0  0  0  0  0  0  0  0  0  0
   -3.8493    0.1206    1.6515 H   0  0  0  0  0  0  0  0  0  0  0  0
   -3.7415    1.4280   -0.9892 H   0  0  0  0  0  0  0  0  0  0  0  0
   -6.0655    2.0145   -0.7740 H   0  0  0  0  0  0  0  0  0  0  0  0
   -6.2909    0.7230    0.5611 H   0  0  0  0  0  0  0  0  0  0  0  0
    6.3967    1.0212    1.9752 H   0  0  0  0  0  0  0  0  0  0  0  0
  1  2  1  0
  2  3  1  0
  3  4  1  0
  4  5  1  0
  5  6  1  0
  6  7  1  0
  7  8  1  0
  7  9  2  0
  9 10  1  0
 10 11  1  0
 11 12  2  3
  2 13  1  0
 13 14  1  0
 13 15  2  0
  1 16  1  0
  1 17  1  0
  2 18  1  1
  3 19  1  0
  3 20  1  0
  4 21  1  0
  4 22  1  0
  5 23  1  0
  5 24  1  0
  6 25  1  0
  8 26  1  0
  8 27  1  0
  9 28  1  0
 10 29  1  0
 10 30  1  0
 11 31  1  0
 12 32  1  0
 12 33  1  0
 14 34  1  0
M  CHG  1   9   1
M  END
$$$$
