
     RDKit          3D

153154  0  0  0  0  0  0  0  0999 V2000
    6.4709    1.6723   -2.3248 C   0  0  0  0  0  0  0  0  0  0  0  0
    7.0066    0.3752   -2.1801 O   0  0  0  0  0  0  0  0  0  0  0  0
    7.7800    0.2739   -0.9913 C   0  0  2  0  0  0  0  0  0  0  0  0
    9.2783    0.4005   -1.3522 C   0  0  0  0  0  0  0  0  0  0  0  0
    9.7335   -0.6053   -2.3757 C   0  0  0  0  0  0  0  0  0  0  0  0
   11.0198   -0.6722   -2.7368 C   0  0  0  0  0  0  0  0  0  0  0  0
   11.5046   -1.6297   -3.6974 N   0  0  0  0  0  0  0  0  0  0  0  0
   12.9238   -1.9878   -3.6656 C   0  0  0  0  0  0  0  0  0  0  0  0
   10.6928   -2.0446   -4.8119 C   0  0  0  0  0  0  0  0  0  0  0  0
   11.1227   -2.8867   -5.6447 O   0  0  0  0  0  0  0  0  0  0  0  0
    7.4357   -1.0657   -0.2789 C   0  0  1  0  0  0  0  0  0  0  0  0
    8.1350   -1.2166    1.0822 C   0  0  0  0  0  0  0  0  0  0  0  0
    5.9351   -1.2119   -0.1077 C   0  0  0  0  0  0  0  0  0  0  0  0
    5.3500   -2.0903   -0.7249 O   0  0  0  0  0  0  0  0  0  0  0  0
    5.1354   -0.2810    0.7719 C   0  0  0  0  0  0  0  0  0  0  0  0
    4.5362   -1.0375    1.9702 C   0  0  0  0  0  0  0  0  0  0  0  0
    3.5126   -0.1945    2.7788 C   0  0  2  0  0  0  0  0  0  0  0  0
    4.2260    0.9722    3.4950 C   0  0  0  0  0  0  0  0  0  0  0  0
    2.7287   -1.0970    3.7907 C   0  0  2  0  0  0  0  0  0  0  0  0
    2.1454   -2.1892    3.0924 O   0  0  0  0  0  0  0  0  0  0  0  0
    2.6366   -3.4289    3.5590 C   0  0  0  0  0  0  0  0  0  0  0  0
    1.6253   -0.3606    4.6368 C   0  0  2  0  0  0  0  0  0  0  0  0
    1.0356   -1.3040    5.7012 C   0  0  0  0  0  0  0  0  0  0  0  0
    0.4869    0.3914    3.8665 C   0  0  1  0  0  0  0  0  0  0  0  0
    1.0662    1.4295    3.0677 O   0  0  0  0  0  0  0  0  0  0  0  0
    0.4012    2.5483    2.5455 C   0  0  0  0  0  0  0  0  0  0  0  0
    1.0035    3.2500    1.6897 O   0  0  0  0  0  0  0  0  0  0  0  0
   -0.9680    2.9232    2.9589 C   0  0  0  0  0  0  0  0  0  0  0  0
   -1.7653    3.6395    2.1604 C   0  0  0  0  0  0  0  0  0  0  0  0
   -3.1128    4.0543    2.6107 C   0  0  0  0  0  0  0  0  0  0  0  0
   -3.9994    4.7567    1.8738 C   0  0  0  0  0  0  0  0  0  0  0  0
   -5.3343    5.0771    2.4902 C   0  0  0  0  0  0  0  0  0  0  0  0
   -3.7583    5.1798    0.4355 C   0  0  0  0  0  0  0  0  0  0  0  0
   -4.5178    4.3015   -0.5841 C   0  0  2  0  0  0  0  0  0  0  0  0
   -4.2186    2.8012   -0.3869 C   0  0  0  0  0  0  0  0  0  0  0  0
   -4.9269    1.9505   -1.4213 C   0  0  0  0  0  0  0  0  0  0  0  0
   -4.2185    1.4001   -2.4172 C   0  0  0  0  0  0  0  0  0  0  0  0
   -4.8915    0.6376   -3.4698 C   0  0  0  0  0  0  0  0  0  0  0  0
   -4.2438    0.2361   -4.4712 O   0  0  0  0  0  0  0  0  0  0  0  0
   -6.2563    0.3657   -3.3698 O   0  0  0  0  0  0  0  0  0  0  0  0
   -7.0231    0.6680   -2.1990 C   0  0  2  0  0  0  0  0  0  0  0  0
   -6.4458    1.9148   -1.4592 C   0  0  1  0  0  0  0  0  0  0  0  0
   -6.9720    2.0372   -0.1644 O   0  0  0  0  0  0  0  0  0  0  0  0
   -7.2586   -0.6357   -1.3668 C   0  0  2  0  0  0  0  0  0  0  0  0
   -8.4964   -0.5242   -0.4456 C   0  0  0  0  0  0  0  0  0  0  0  0
   -5.9977   -1.1830   -0.6241 C   0  0  2  0  0  0  0  0  0  0  0  0
   -6.1117   -2.7210   -0.3923 C   0  0  0  0  0  0  0  0  0  0  0  0
   -5.6345   -3.5560   -1.6015 C   0  0  2  0  0  0  0  0  0  0  0  0
   -5.9781   -4.9159   -1.3963 O   0  0  0  0  0  0  0  0  0  0  0  0
   -7.1725   -5.2389   -2.0755 C   0  0  0  0  0  0  0  0  0  0  0  0
   -4.1321   -3.4740   -1.7002 C   0  0  0  0  0  0  0  0  0  0  0  0
   -3.5196   -2.7784   -2.6735 C   0  0  0  0  0  0  0  0  0  0  0  0
   -2.0251   -2.5407   -2.6994 C   0  0  2  0  0  0  0  0  0  0  0  0
   -1.2539   -3.8678   -2.7884 C   0  0  0  0  0  0  0  0  0  0  0  0
   -1.5828   -1.6275   -1.5197 C   0  0  1  0  0  0  0  0  0  0  0  0
   -1.7305   -2.2788   -0.2810 O   0  0  0  0  0  0  0  0  0  0  0  0
   -0.1450   -1.0752   -1.7059 C   0  0  0  0  0  0  0  0  0  0  0  0
    0.2112    0.0853   -0.7525 C   0  0  1  0  0  0  0  0  0  0  0  0
   -0.7283    1.1443   -0.8801 O   0  0  0  0  0  0  0  0  0  0  0  0
   -0.2292    2.1640   -1.7168 C   0  0  0  0  0  0  0  0  0  0  0  0
    0.2896   -0.3919    0.6800 C   0  0  0  0  0  0  0  0  0  0  0  0
   -0.6475   -0.1173    1.6041 C   0  0  0  0  0  0  0  0  0  0  0  0
   -0.4843   -0.5426    3.0485 C   0  0  2  0  0  0  0  0  0  0  0  0
   -1.8664   -0.6171    3.7146 C   0  0  0  0  0  0  0  0  0  0  0  0
   -5.8495   -0.5130    0.6198 O   0  0  0  0  0  0  0  0  0  0  0  0
   -4.4949   -0.4738    1.0243 C   0  0  0  0  0  0  0  0  0  0  0  0
   -4.1188    4.6714   -1.8953 O   0  0  0  0  0  0  0  0  0  0  0  0
   -5.0294    5.5912   -2.4574 C   0  0  0  0  0  0  0  0  0  0  0  0
    5.9381    1.7293   -3.2959 H   0  0  0  0  0  0  0  0  0  0  0  0
    5.7329    1.8855   -1.5203 H   0  0  0  0  0  0  0  0  0  0  0  0
    7.2729    2.4432   -2.3317 H   0  0  0  0  0  0  0  0  0  0  0  0
    7.5610    1.0939   -0.2639 H   0  0  0  0  0  0  0  0  0  0  0  0
    9.9012    0.3138   -0.4376 H   0  0  0  0  0  0  0  0  0  0  0  0
    9.4584    1.4177   -1.7621 H   0  0  0  0  0  0  0  0  0  0  0  0
    9.0139   -1.2875   -2.8083 H   0  0  0  0  0  0  0  0  0  0  0  0
   11.7342   -0.0222   -2.2432 H   0  0  0  0  0  0  0  0  0  0  0  0
   13.0618   -3.0520   -3.9519 H   0  0  0  0  0  0  0  0  0  0  0  0
   13.3395   -1.8595   -2.6428 H   0  0  0  0  0  0  0  0  0  0  0  0
   13.4877   -1.3405   -4.3697 H   0  0  0  0  0  0  0  0  0  0  0  0
    9.7052   -1.6293   -4.9611 H   0  0  0  0  0  0  0  0  0  0  0  0
    7.7828   -1.9089   -0.9157 H   0  0  0  0  0  0  0  0  0  0  0  0
    9.2254   -1.3684    0.9460 H   0  0  0  0  0  0  0  0  0  0  0  0
    7.7452   -2.1097    1.6165 H   0  0  0  0  0  0  0  0  0  0  0  0
    7.9721   -0.3216    1.7193 H   0  0  0  0  0  0  0  0  0  0  0  0
    4.3235    0.1703    0.1613 H   0  0  0  0  0  0  0  0  0  0  0  0
    5.7854    0.5388    1.1333 H   0  0  0  0  0  0  0  0  0  0  0  0
    5.3532   -1.3868    2.6393 H   0  0  0  0  0  0  0  0  0  0  0  0
    4.0262   -1.9358    1.5632 H   0  0  0  0  0  0  0  0  0  0  0  0
    2.8044    0.2260    2.0412 H   0  0  0  0  0  0  0  0  0  0  0  0
    4.9533    0.5874    4.2412 H   0  0  0  0  0  0  0  0  0  0  0  0
    3.5041    1.6386    4.0047 H   0  0  0  0  0  0  0  0  0  0  0  0
    4.7612    1.6193    2.7730 H   0  0  0  0  0  0  0  0  0  0  0  0
    3.4980   -1.4316    4.5325 H   0  0  0  0  0  0  0  0  0  0  0  0
    2.3905   -3.5832    4.6313 H   0  0  0  0  0  0  0  0  0  0  0  0
    3.7347   -3.5107    3.4047 H   0  0  0  0  0  0  0  0  0  0  0  0
    2.1520   -4.2415    2.9803 H   0  0  0  0  0  0  0  0  0  0  0  0
    2.1480    0.4154    5.2352 H   0  0  0  0  0  0  0  0  0  0  0  0
    1.8468   -1.7261    6.3319 H   0  0  0  0  0  0  0  0  0  0  0  0
    0.4770   -2.1425    5.2375 H   0  0  0  0  0  0  0  0  0  0  0  0
    0.3449   -0.7483    6.3709 H   0  0  0  0  0  0  0  0  0  0  0  0
   -0.0969    0.8985    4.6656 H   0  0  0  0  0  0  0  0  0  0  0  0
   -1.3302    2.6127    3.9292 H   0  0  0  0  0  0  0  0  0  0  0  0
   -1.4020    3.8996    1.1785 H   0  0  0  0  0  0  0  0  0  0  0  0
   -3.4019    3.7727    3.6182 H   0  0  0  0  0  0  0  0  0  0  0  0
   -5.8605    4.1362    2.7583 H   0  0  0  0  0  0  0  0  0  0  0  0
   -5.1898    5.6896    3.4053 H   0  0  0  0  0  0  0  0  0  0  0  0
   -5.9779    5.6477    1.7878 H   0  0  0  0  0  0  0  0  0  0  0  0
   -2.6866    5.2275    0.1692 H   0  0  0  0  0  0  0  0  0  0  0  0
   -4.1130    6.2271    0.3289 H   0  0  0  0  0  0  0  0  0  0  0  0
   -5.6129    4.4403   -0.4089 H   0  0  0  0  0  0  0  0  0  0  0  0
   -4.5614    2.4764    0.6175 H   0  0  0  0  0  0  0  0  0  0  0  0
   -3.1198    2.6342   -0.4177 H   0  0  0  0  0  0  0  0  0  0  0  0
   -3.1423    1.5112   -2.4607 H   0  0  0  0  0  0  0  0  0  0  0  0
   -8.0233    0.9763   -2.5759 H   0  0  0  0  0  0  0  0  0  0  0  0
   -6.7438    2.8091   -2.0553 H   0  0  0  0  0  0  0  0  0  0  0  0
   -7.8858    2.4140   -0.2599 H   0  0  0  0  0  0  0  0  0  0  0  0
   -7.5459   -1.3938   -2.1287 H   0  0  0  0  0  0  0  0  0  0  0  0
   -9.3427   -0.0438   -0.9803 H   0  0  0  0  0  0  0  0  0  0  0  0
   -8.2867    0.0563    0.4740 H   0  0  0  0  0  0  0  0  0  0  0  0
   -8.8462   -1.5293   -0.1351 H   0  0  0  0  0  0  0  0  0  0  0  0
   -5.1254   -0.9936   -1.2850 H   0  0  0  0  0  0  0  0  0  0  0  0
   -7.1572   -2.9959   -0.1499 H   0  0  0  0  0  0  0  0  0  0  0  0
   -5.5271   -3.0301    0.4994 H   0  0  0  0  0  0  0  0  0  0  0  0
   -6.0807   -3.1409   -2.5384 H   0  0  0  0  0  0  0  0  0  0  0  0
   -7.4649   -6.2743   -1.8059 H   0  0  0  0  0  0  0  0  0  0  0  0
   -7.0183   -5.2058   -3.1765 H   0  0  0  0  0  0  0  0  0  0  0  0
   -8.0067   -4.5639   -1.7815 H   0  0  0  0  0  0  0  0  0  0  0  0
   -3.5482   -3.9298   -0.9068 H   0  0  0  0  0  0  0  0  0  0  0  0
   -4.1158   -2.3246   -3.4596 H   0  0  0  0  0  0  0  0  0  0  0  0
   -1.8178   -1.9869   -3.6421 H   0  0  0  0  0  0  0  0  0  0  0  0
   -1.6021   -4.4455   -3.6712 H   0  0  0  0  0  0  0  0  0  0  0  0
   -0.1681   -3.6796   -2.9168 H   0  0  0  0  0  0  0  0  0  0  0  0
   -1.4065   -4.4915   -1.8835 H   0  0  0  0  0  0  0  0  0  0  0  0
   -2.2721   -0.7562   -1.5194 H   0  0  0  0  0  0  0  0  0  0  0  0
   -0.9952   -2.9382   -0.1894 H   0  0  0  0  0  0  0  0  0  0  0  0
   -0.0338   -0.7030   -2.7472 H   0  0  0  0  0  0  0  0  0  0  0  0
    0.5993   -1.8908   -1.5771 H   0  0  0  0  0  0  0  0  0  0  0  0
    1.2520    0.4065   -1.0037 H   0  0  0  0  0  0  0  0  0  0  0  0
   -1.0145    2.9373   -1.8419 H   0  0  0  0  0  0  0  0  0  0  0  0
    0.6554    2.6550   -1.2549 H   0  0  0  0  0  0  0  0  0  0  0  0
    0.0241    1.7708   -2.7258 H   0  0  0  0  0  0  0  0  0  0  0  0
    1.1390   -1.0086    0.9525 H   0  0  0  0  0  0  0  0  0  0  0  0
   -1.5295    0.4530    1.3266 H   0  0  0  0  0  0  0  0  0  0  0  0
   -0.1198   -1.5860    3.0398 H   0  0  0  0  0  0  0  0  0  0  0  0
   -1.7710   -0.9543    4.7681 H   0  0  0  0  0  0  0  0  0  0  0  0
   -2.5079   -1.3498    3.1807 H   0  0  0  0  0  0  0  0  0  0  0  0
   -2.3683    0.3735    3.7016 H   0  0  0  0  0  0  0  0  0  0  0  0
   -4.1020   -1.4878    1.2412 H   0  0  0  0  0  0  0  0  0  0  0  0
   -4.4246    0.1198    1.9584 H   0  0  0  0  0  0  0  0  0  0  0  0
   -3.8498    0.0217    0.2699 H   0  0  0  0  0  0  0  0  0  0  0  0
   -5.1391    6.4974   -1.8224 H   0  0  0  0  0  0  0  0  0  0  0  0
   -6.0193    5.1146   -2.6261 H   0  0  0  0  0  0  0  0  0  0  0  0
   -4.6401    5.9160   -3.4438 H   0  0  0  0  0  0  0  0  0  0  0  0
  1  2  1  0
  2  3  1  0
  3  4  1  0
  4  5  1  0
  5  6  2  0
  6  7  1  0
  7  8  1  0
  7  9  1  0
  9 10  2  0
  3 11  1  0
 11 12  1  0
 11 13  1  0
 13 14  2  0
 13 15  1  0
 15 16  1  0
 16 17  1  0
 17 18  1  0
 17 19  1  0
 19 20  1  0
 20 21  1  0
 19 22  1  0
 22 23  1  0
 22 24  1  0
 24 25  1  0
 25 26  1  0
 26 27  2  0
 26 28  1  0
 28 29  2  0
 29 30  1  0
 30 31  2  0
 31 32  1  0
 31 33  1  0
 33 34  1  0
 34 35  1  0
 35 36  1  0
 36 37  2  0
 37 38  1  0
 38 39  2  0
 38 40  1  0
 40 41  1  0
 41 42  1  0
 42 43  1  0
 41 44  1  0
 44 45  1  0
 44 46  1  0
 46 47  1  0
 47 48  1  0
 48 49  1  0
 49 50  1  0
 48 51  1  0
 51 52  2  0
 52 53  1  0
 53 54  1  0
 53 55  1  0
 55 56  1  0
 55 57  1  0
 57 58  1  0
 58 59  1  0
 59 60  1  0
 58 61  1  0
 61 62  2  0
 62 63  1  0
 63 64  1  0
 46 65  1  0
 65 66  1  0
 34 67  1  0
 67 68  1  0
 63 24  1  0
 42 36  1  0
  1 69  1  0
  1 70  1  0
  1 71  1  0
  3 72  1  1
  4 73  1  0
  4 74  1  0
  5 75  1  0
  6 76  1  0
  8 77  1  0
  8 78  1  0
  8 79  1  0
  9 80  1  0
 11 81  1  6
 12 82  1  0
 12 83  1  0
 12 84  1  0
 15 85  1  0
 15 86  1  0
 16 87  1  0
 16 88  1  0
 17 89  1  6
 18 90  1  0
 18 91  1  0
 18 92  1  0
 19 93  1  1
 21 94  1  0
 21 95  1  0
 21 96  1  0
 22 97  1  1
 23 98  1  0
 23 99  1  0
 23100  1  0
 24101  1  1
 28102  1  0
 29103  1  0
 30104  1  0
 32105  1  0
 32106  1  0
 32107  1  0
 33108  1  0
 33109  1  0
 34110  1  6
 35111  1  0
 35112  1  0
 37113  1  0
 41114  1  6
 42115  1  6
 43116  1  0
 44117  1  6
 45118  1  0
 45119  1  0
 45120  1  0
 46121  1  6
 47122  1  0
 47123  1  0
 48124  1  6
 50125  1  0
 50126  1  0
 50127  1  0
 51128  1  0
 52129  1  0
 53130  1  6
 54131  1  0
 54132  1  0
 54133  1  0
 55134  1  1
 56135  1  0
 57136  1  0
 57137  1  0
 58138  1  6
 60139  1  0
 60140  1  0
 60141  1  0
 61142  1  0
 62143  1  0
 63144  1  6
 64145  1  0
 64146  1  0
 64147  1  0
 66148  1  0
 66149  1  0
 66150  1  0
 68151  1  0
 68152  1  0
 68153  1  0
M  END
$$$$
