
     RDKit          3D

 26 26  0  0  0  0  0  0  0  0999 V2000
    1.1809   -1.8887    0.9659 N   0  0  0  0  0  0  0  0  0  0  0  0
    1.3289   -1.2885   -0.3588 C   0  0  0  0  0  0  0  0  0  0  0  0
    0.6942    0.1187   -0.4320 C   0  0  0  0  0  0  0  0  0  0  0  0
    1.3309    1.1369    0.5423 C   0  0  0  0  0  0  0  0  0  0  0  0
    2.7656    1.4063    0.2033 C   0  0  0  0  0  0  0  0  0  0  0  0
    3.0798    2.2400   -0.8653 O   0  0  0  0  0  0  0  0  0  0  0  0
    3.6863    0.8576    0.8660 O   0  0  0  0  0  0  0  0  0  0  0  0
   -0.8158    0.0449   -0.2628 C   0  0  0  0  0  0  0  0  0  0  0  0
   -1.4065   -0.1606    1.0003 C   0  0  0  0  0  0  0  0  0  0  0  0
   -2.7958   -0.2481    1.1281 C   0  0  0  0  0  0  0  0  0  0  0  0
   -3.6130   -0.1406   -0.0004 C   0  0  0  0  0  0  0  0  0  0  0  0
   -5.3558   -0.2525    0.1631 Cl  0  0  0  0  0  0  0  0  0  0  0  0
   -3.0390    0.0508   -1.2600 C   0  0  0  0  0  0  0  0  0  0  0  0
   -1.6502    0.1389   -1.3926 C   0  0  0  0  0  0  0  0  0  0  0  0
    1.3988   -2.9078    0.8805 H   0  0  0  0  0  0  0  0  0  0  0  0
    1.9151   -1.4883    1.5933 H   0  0  0  0  0  0  0  0  0  0  0  0
    2.4063   -1.2380   -0.6327 H   0  0  0  0  0  0  0  0  0  0  0  0
    0.8337   -1.9404   -1.1130 H   0  0  0  0  0  0  0  0  0  0  0  0
    0.9032    0.4993   -1.4580 H   0  0  0  0  0  0  0  0  0  0  0  0
    0.7773    2.0989    0.4768 H   0  0  0  0  0  0  0  0  0  0  0  0
    1.2589    0.7896    1.5943 H   0  0  0  0  0  0  0  0  0  0  0  0
    4.0443    2.4225   -1.1154 H   0  0  0  0  0  0  0  0  0  0  0  0
   -0.7979   -0.2566    1.8891 H   0  0  0  0  0  0  0  0  0  0  0  0
   -3.2357   -0.4028    2.1052 H   0  0  0  0  0  0  0  0  0  0  0  0
   -3.6676    0.1288   -2.1379 H   0  0  0  0  0  0  0  0  0  0  0  0
   -1.2271    0.2796   -2.3794 H   0  0  0  0  0  0  0  0  0  0  0  0
  1  2  1  0
  2  3  1  0
  3  4  1  0
  4  5  1  0
  5  6  1  0
  5  7  2  0
  3  8  1  0
  8  9  2  0
  9 10  1  0
 10 11  2  0
 11 12  1  0
 11 13  1  0
 13 14  2  0
 14  8  1  0
  1 15  1  0
  1 16  1  0
  2 17  1  0
  2 18  1  0
  3 19  1  0
  4 20  1  0
  4 21  1  0
  6 22  1  0
  9 23  1  0
 10 24  1  0
 13 25  1  0
 14 26  1  0
M  END
$$$$
