
     RDKit          3D

 45 45  0  0  0  0  0  0  0  0999 V2000
    6.2821    2.5170    1.1684 O   0  0  0  0  0  0  0  0  0  0  0  0
    6.7707    1.3242    0.6446 C   0  0  0  0  0  0  0  0  0  0  0  0
    7.7328    0.7361    1.2072 O   0  0  0  0  0  0  0  0  0  0  0  0
    6.1212    0.7178   -0.5588 C   0  0  0  0  0  0  0  0  0  0  0  0
    4.9657   -0.1965   -0.1409 C   0  0  0  0  0  0  0  0  0  0  0  0
    4.2804   -0.8119   -1.3701 C   0  0  0  0  0  0  0  0  0  0  0  0
    3.2015   -1.8399   -0.9942 C   0  0  0  0  0  0  0  0  0  0  0  0
    1.9554   -1.1905   -0.3743 C   0  0  0  0  0  0  0  0  0  0  0  0
    0.8523   -2.2287   -0.1446 C   0  0  0  0  0  0  0  0  0  0  0  0
   -0.3089   -1.6091    0.4910 N   0  0  0  0  0  0  0  0  0  0  0  0
   -1.2261   -0.7697   -0.2238 C   0  0  0  0  0  0  0  0  0  0  0  0
   -1.0620   -0.5600   -1.4569 O   0  0  0  0  0  0  0  0  0  0  0  0
   -2.3349   -0.1782    0.4683 N   0  0  0  0  0  0  0  0  0  0  0  0
   -3.3613    0.6169   -0.2141 C   0  0  0  0  0  0  0  0  0  0  0  0
   -4.5331   -0.2968   -0.6525 C   0  0  0  0  0  0  0  0  0  0  0  0
   -5.6724   -0.2976    0.3725 C   0  0  0  0  0  0  0  0  0  0  0  0
   -6.2619    1.1141    0.5684 C   0  0  0  0  0  0  0  0  0  0  0  0
   -5.2339    2.2442    0.3552 C   0  0  0  0  0  0  0  0  0  0  0  0
   -3.8130    1.7852    0.6973 C   0  0  0  0  0  0  0  0  0  0  0  0
    6.7002    2.9322    1.9924 H   0  0  0  0  0  0  0  0  0  0  0  0
    6.8766    0.1368   -1.1320 H   0  0  0  0  0  0  0  0  0  0  0  0
    5.7399    1.5317   -1.2129 H   0  0  0  0  0  0  0  0  0  0  0  0
    5.3582   -1.0088    0.5102 H   0  0  0  0  0  0  0  0  0  0  0  0
    4.2291    0.3997    0.4392 H   0  0  0  0  0  0  0  0  0  0  0  0
    5.0473   -1.3312   -1.9859 H   0  0  0  0  0  0  0  0  0  0  0  0
    3.8336   -0.0088   -1.9965 H   0  0  0  0  0  0  0  0  0  0  0  0
    3.6257   -2.5919   -0.2931 H   0  0  0  0  0  0  0  0  0  0  0  0
    2.9022   -2.3759   -1.9216 H   0  0  0  0  0  0  0  0  0  0  0  0
    2.2158   -0.7308    0.6027 H   0  0  0  0  0  0  0  0  0  0  0  0
    1.5789   -0.3933   -1.0509 H   0  0  0  0  0  0  0  0  0  0  0  0
    1.2411   -3.0322    0.5188 H   0  0  0  0  0  0  0  0  0  0  0  0
    0.5490   -2.6963   -1.1067 H   0  0  0  0  0  0  0  0  0  0  0  0
   -0.5036   -1.8302    1.4935 H   0  0  0  0  0  0  0  0  0  0  0  0
   -2.4996   -0.4622    1.4607 H   0  0  0  0  0  0  0  0  0  0  0  0
   -2.9269    1.0697   -1.1335 H   0  0  0  0  0  0  0  0  0  0  0  0
   -4.9346    0.0614   -1.6264 H   0  0  0  0  0  0  0  0  0  0  0  0
   -4.1766   -1.3378   -0.8125 H   0  0  0  0  0  0  0  0  0  0  0  0
   -6.4740   -0.9913    0.0384 H   0  0  0  0  0  0  0  0  0  0  0  0
   -5.2836   -0.6768    1.3433 H   0  0  0  0  0  0  0  0  0  0  0  0
   -6.6791    1.1842    1.5966 H   0  0  0  0  0  0  0  0  0  0  0  0
   -7.1053    1.2630   -0.1407 H   0  0  0  0  0  0  0  0  0  0  0  0
   -5.5059    3.1178    0.9863 H   0  0  0  0  0  0  0  0  0  0  0  0
   -5.2600    2.5757   -0.7064 H   0  0  0  0  0  0  0  0  0  0  0  0
   -3.1096    2.6382    0.5821 H   0  0  0  0  0  0  0  0  0  0  0  0
   -3.7931    1.4802    1.7671 H   0  0  0  0  0  0  0  0  0  0  0  0
  1  2  1  0
  2  3  2  0
  2  4  1  0
  4  5  1  0
  5  6  1  0
  6  7  1  0
  7  8  1  0
  8  9  1  0
  9 10  1  0
 10 11  1  0
 11 12  2  0
 11 13  1  0
 13 14  1  0
 14 15  1  0
 15 16  1  0
 16 17  1  0
 17 18  1  0
 18 19  1  0
 19 14  1  0
  1 20  1  0
  4 21  1  0
  4 22  1  0
  5 23  1  0
  5 24  1  0
  6 25  1  0
  6 26  1  0
  7 27  1  0
  7 28  1  0
  8 29  1  0
  8 30  1  0
  9 31  1  0
  9 32  1  0
 10 33  1  0
 13 34  1  0
 14 35  1  0
 15 36  1  0
 15 37  1  0
 16 38  1  0
 16 39  1  0
 17 40  1  0
 17 41  1  0
 18 42  1  0
 18 43  1  0
 19 44  1  0
 19 45  1  0
M  END
$$$$
