
     RDKit          3D

 23 23  0  0  0  0  0  0  0  0999 V2000
   -2.7325    0.0592   -0.0140 C   0  0  0  0  0  0  0  0  0  0  0  0
   -1.2491    0.2425    0.3104 C   0  0  2  0  0  0  0  0  0  0  0  0
   -0.6594    1.0700   -0.6777 O   0  0  0  0  0  0  0  0  0  0  0  0
    0.6672    1.4130   -0.3095 C   0  0  2  0  0  0  0  0  0  0  0  0
    1.1731    2.3256   -1.2454 O   0  0  0  0  0  0  0  0  0  0  0  0
    1.5674    0.1600   -0.2957 C   0  0  1  0  0  0  0  0  0  0  0  0
    2.8599    0.5017    0.1359 O   0  0  0  0  0  0  0  0  0  0  0  0
    0.9847   -0.8970    0.6579 C   0  0  2  0  0  0  0  0  0  0  0  0
    1.6941   -2.1004    0.5148 O   0  0  0  0  0  0  0  0  0  0  0  0
   -0.5190   -1.1214    0.3884 C   0  0  2  0  0  0  0  0  0  0  0  0
   -0.7197   -1.8955   -0.7717 O   0  0  0  0  0  0  0  0  0  0  0  0
   -3.2437    1.0451    0.0058 H   0  0  0  0  0  0  0  0  0  0  0  0
   -2.8632   -0.3836   -1.0242 H   0  0  0  0  0  0  0  0  0  0  0  0
   -3.2133   -0.6013    0.7389 H   0  0  0  0  0  0  0  0  0  0  0  0
   -1.2024    0.7370    1.3095 H   0  0  0  0  0  0  0  0  0  0  0  0
    0.6880    1.8942    0.6991 H   0  0  0  0  0  0  0  0  0  0  0  0
    0.6369    3.1551   -1.1466 H   0  0  0  0  0  0  0  0  0  0  0  0
    1.6140   -0.2686   -1.3248 H   0  0  0  0  0  0  0  0  0  0  0  0
    3.3325    0.8918   -0.6453 H   0  0  0  0  0  0  0  0  0  0  0  0
    1.1021   -0.5201    1.7023 H   0  0  0  0  0  0  0  0  0  0  0  0
    1.4656   -2.6618    1.3013 H   0  0  0  0  0  0  0  0  0  0  0  0
   -0.9374   -1.6909    1.2473 H   0  0  0  0  0  0  0  0  0  0  0  0
   -0.4459   -1.3545   -1.5565 H   0  0  0  0  0  0  0  0  0  0  0  0
  1  2  1  0
  2  3  1  0
  3  4  1  0
  4  5  1  0
  4  6  1  0
  6  7  1  0
  6  8  1  0
  8  9  1  0
  8 10  1  0
 10 11  1  0
 10  2  1  0
  1 12  1  0
  1 13  1  0
  1 14  1  0
  2 15  1  1
  4 16  1  1
  5 17  1  0
  6 18  1  6
  7 19  1  0
  8 20  1  1
  9 21  1  0
 10 22  1  1
 11 23  1  0
M  END
$$$$
