
     RDKit          3D

 30 29  0  0  0  0  0  0  0  0999 V2000
   -4.9356    0.4579    1.5568 O   0  0  0  0  0  0  0  0  0  0  0  0
   -3.7633    0.8035    0.8734 C   0  0  0  0  0  0  0  0  0  0  0  0
   -2.8590   -0.4254    0.7601 C   0  0  0  0  0  0  0  0  0  0  0  0
   -1.5632   -0.1126   -0.0102 C   0  0  1  0  0  0  0  0  0  0  0  0
   -0.8138    0.8345    0.7107 O   0  0  0  0  0  0  0  0  0  0  0  0
   -0.7369   -1.4080   -0.2478 C   0  0  2  0  0  0  0  0  0  0  0  0
   -0.3863   -2.0549    0.9538 O   0  0  0  0  0  0  0  0  0  0  0  0
    0.4975   -1.1963   -1.1663 C   0  0  2  0  0  0  0  0  0  0  0  0
    0.9799   -2.4362   -1.6212 O   0  0  0  0  0  0  0  0  0  0  0  0
    1.6216   -0.4062   -0.5286 C   0  0  0  0  0  0  0  0  0  0  0  0
    2.6708   -0.0023   -1.2543 C   0  0  0  0  0  0  0  0  0  0  0  0
    3.9936    0.9450   -0.5019 P   0  0  0  0  0  5  0  0  0  0  0  0
    3.3592    2.3662    0.1625 O   0  0  0  0  0  0  0  0  0  0  0  0
    5.1487    1.3333   -1.6757 O   0  0  0  0  0  0  0  0  0  0  0  0
    4.6437    0.1238    0.5882 O   0  0  0  0  0  0  0  0  0  0  0  0
   -5.4832    1.2846    1.5994 H   0  0  0  0  0  0  0  0  0  0  0  0
   -3.2343    1.6102    1.4286 H   0  0  0  0  0  0  0  0  0  0  0  0
   -4.0211    1.1721   -0.1450 H   0  0  0  0  0  0  0  0  0  0  0  0
   -3.4202   -1.2283    0.2331 H   0  0  0  0  0  0  0  0  0  0  0  0
   -2.6115   -0.7889    1.7817 H   0  0  0  0  0  0  0  0  0  0  0  0
   -1.8567    0.2966   -1.0078 H   0  0  0  0  0  0  0  0  0  0  0  0
   -0.4441    1.4806    0.0538 H   0  0  0  0  0  0  0  0  0  0  0  0
   -1.4058   -2.1049   -0.8004 H   0  0  0  0  0  0  0  0  0  0  0  0
    0.0021   -1.3839    1.5707 H   0  0  0  0  0  0  0  0  0  0  0  0
    0.1531   -0.6299   -2.0595 H   0  0  0  0  0  0  0  0  0  0  0  0
    1.3251   -2.9311   -0.8321 H   0  0  0  0  0  0  0  0  0  0  0  0
    1.5860   -0.1507    0.5250 H   0  0  0  0  0  0  0  0  0  0  0  0
    2.7326   -0.2380   -2.3125 H   0  0  0  0  0  0  0  0  0  0  0  0
    4.1489    2.8663    0.4900 H   0  0  0  0  0  0  0  0  0  0  0  0
    4.6722    1.9231   -2.3129 H   0  0  0  0  0  0  0  0  0  0  0  0
  1  2  1  0
  2  3  1  0
  3  4  1  0
  4  5  1  0
  4  6  1  0
  6  7  1  0
  6  8  1  0
  8  9  1  0
  8 10  1  0
 10 11  2  0
 11 12  1  0
 12 13  1  0
 12 14  1  0
 12 15  2  0
  1 16  1  0
  2 17  1  0
  2 18  1  0
  3 19  1  0
  3 20  1  0
  4 21  1  6
  5 22  1  0
  6 23  1  6
  7 24  1  0
  8 25  1  6
  9 26  1  0
 10 27  1  0
 11 28  1  0
 13 29  1  0
 14 30  1  0
M  END
$$$$
