
     RDKit          3D

 41 43  0  0  0  0  0  0  0  0999 V2000
   -2.4261   -0.5092    0.0308 C   0  0  1  0  0  0  0  0  0  0  0  0
   -3.0946    0.7995    0.5364 C   0  0  0  0  0  0  0  0  0  0  0  0
   -2.1686    1.9964    0.5166 C   0  0  0  0  0  0  0  0  0  0  0  0
   -1.0106    2.0008   -0.1775 C   0  0  0  0  0  0  0  0  0  0  0  0
   -0.1757    3.2515   -0.2143 C   0  0  0  0  0  0  0  0  0  0  0  0
   -0.4751    0.7195   -0.7999 C   0  0  2  0  0  0  0  0  0  0  0  0
   -1.6368   -0.1755   -1.2368 C   0  0  0  0  0  0  0  0  0  0  0  0
    0.4110   -0.0340    0.2424 C   0  0  1  0  0  0  0  0  0  0  0  0
   -0.1204   -1.3038    0.6039 O   0  0  0  0  0  0  0  0  0  0  0  0
   -1.4732   -1.2588    1.0609 C   0  0  0  0  0  0  0  0  0  0  0  0
   -1.5130   -0.7044    2.5079 C   0  0  0  0  0  0  0  0  0  0  0  0
   -1.9260   -2.7300    1.1400 C   0  0  0  0  0  0  0  0  0  0  0  0
    1.8005   -0.2363   -0.3202 C   0  0  0  0  0  0  0  0  0  0  0  0
    2.0535   -1.2635   -1.2474 C   0  0  0  0  0  0  0  0  0  0  0  0
    3.3288   -1.4208   -1.7978 C   0  0  0  0  0  0  0  0  0  0  0  0
    4.3628   -0.5458   -1.4400 C   0  0  0  0  0  0  0  0  0  0  0  0
    5.6375   -0.6930   -1.9821 O   0  0  0  0  0  0  0  0  0  0  0  0
    4.1133    0.4885   -0.5330 C   0  0  0  0  0  0  0  0  0  0  0  0
    2.8391    0.6485    0.0195 C   0  0  0  0  0  0  0  0  0  0  0  0
   -3.2619   -1.1790   -0.2752 H   0  0  0  0  0  0  0  0  0  0  0  0
   -3.5376    0.6727    1.5444 H   0  0  0  0  0  0  0  0  0  0  0  0
   -3.9457    1.0391   -0.1376 H   0  0  0  0  0  0  0  0  0  0  0  0
   -2.5144    2.9114    0.9897 H   0  0  0  0  0  0  0  0  0  0  0  0
    0.0681    3.5727    0.8205 H   0  0  0  0  0  0  0  0  0  0  0  0
    0.7763    3.0794   -0.7593 H   0  0  0  0  0  0  0  0  0  0  0  0
   -0.7362    4.0611   -0.7272 H   0  0  0  0  0  0  0  0  0  0  0  0
    0.1033    0.9844   -1.7141 H   0  0  0  0  0  0  0  0  0  0  0  0
   -1.2563   -1.1040   -1.7176 H   0  0  0  0  0  0  0  0  0  0  0  0
   -2.2780    0.3494   -1.9803 H   0  0  0  0  0  0  0  0  0  0  0  0
    0.5251    0.5686    1.1715 H   0  0  0  0  0  0  0  0  0  0  0  0
   -1.2677    0.3752    2.5479 H   0  0  0  0  0  0  0  0  0  0  0  0
   -0.7697   -1.2368    3.1394 H   0  0  0  0  0  0  0  0  0  0  0  0
   -2.5154   -0.8525    2.9638 H   0  0  0  0  0  0  0  0  0  0  0  0
   -2.9704   -2.8062    1.5137 H   0  0  0  0  0  0  0  0  0  0  0  0
   -1.8743   -3.2027    0.1352 H   0  0  0  0  0  0  0  0  0  0  0  0
   -1.2646   -3.3082    1.8214 H   0  0  0  0  0  0  0  0  0  0  0  0
    1.2627   -1.9400   -1.5468 H   0  0  0  0  0  0  0  0  0  0  0  0
    3.5108   -2.2193   -2.5058 H   0  0  0  0  0  0  0  0  0  0  0  0
    5.8498   -1.4315   -2.6428 H   0  0  0  0  0  0  0  0  0  0  0  0
    4.9068    1.1724   -0.2596 H   0  0  0  0  0  0  0  0  0  0  0  0
    2.6628    1.4644    0.7095 H   0  0  0  0  0  0  0  0  0  0  0  0
  1  2  1  0
  2  3  1  0
  3  4  2  0
  4  5  1  0
  4  6  1  0
  6  7  1  0
  6  8  1  0
  8  9  1  0
  9 10  1  0
 10 11  1  0
 10 12  1  0
  8 13  1  0
 13 14  2  0
 14 15  1  0
 15 16  2  0
 16 17  1  0
 16 18  1  0
 18 19  2  0
  7  1  1  0
 19 13  1  0
 10  1  1  0
  1 20  1  6
  2 21  1  0
  2 22  1  0
  3 23  1  0
  5 24  1  0
  5 25  1  0
  5 26  1  0
  6 27  1  6
  7 28  1  0
  7 29  1  0
  8 30  1  1
 11 31  1  0
 11 32  1  0
 11 33  1  0
 12 34  1  0
 12 35  1  0
 12 36  1  0
 14 37  1  0
 15 38  1  0
 17 39  1  0
 18 40  1  0
 19 41  1  0
M  END
$$$$
