
     RDKit          3D

 56 60  0  0  0  0  0  0  0  0999 V2000
   -5.8270   -0.4502    0.2239 C   0  0  1  0  0  0  0  0  0  0  0  0
   -6.6727   -0.4042    1.3444 O   0  0  0  0  0  0  0  0  0  0  0  0
   -6.1264    0.7186   -0.7391 C   0  0  0  0  0  0  0  0  0  0  0  0
   -4.7687    1.2106   -1.2732 C   0  0  0  0  0  0  0  0  0  0  0  0
   -3.7775    0.1674   -0.7748 C   0  0  1  0  0  0  0  0  0  0  0  0
   -2.2800    0.5186   -0.6982 C   0  0  2  0  0  0  0  0  0  0  0  0
   -1.7327    1.0156   -2.0419 C   0  0  0  0  0  0  0  0  0  0  0  0
   -0.2850    1.4840   -1.8728 C   0  0  0  0  0  0  0  0  0  0  0  0
    0.5680    0.5363   -1.0567 C   0  0  0  0  0  0  0  0  0  0  0  0
    1.9571    0.7402   -1.0622 C   0  0  0  0  0  0  0  0  0  0  0  0
    2.8094   -0.0760   -0.3173 C   0  0  0  0  0  0  0  0  0  0  0  0
    4.1878    0.1812   -0.3608 O   0  0  0  0  0  0  0  0  0  0  0  0
    5.1991   -0.7740   -0.1828 C   0  0  0  0  0  0  0  0  0  0  0  0
    4.9397   -2.0046   -0.2865 O   0  0  0  0  0  0  0  0  0  0  0  0
    6.5881   -0.3306    0.0688 C   0  0  0  0  0  0  0  0  0  0  0  0
    6.8905    1.0406    0.1588 C   0  0  0  0  0  0  0  0  0  0  0  0
    8.2025    1.4616    0.3981 C   0  0  0  0  0  0  0  0  0  0  0  0
    9.2240    0.5214    0.5503 C   0  0  0  0  0  0  0  0  0  0  0  0
    8.9358   -0.8424    0.4640 C   0  0  0  0  0  0  0  0  0  0  0  0
    7.6258   -1.2694    0.2249 C   0  0  0  0  0  0  0  0  0  0  0  0
    2.2613   -1.0939    0.4752 C   0  0  0  0  0  0  0  0  0  0  0  0
    0.8818   -1.3032    0.5028 C   0  0  0  0  0  0  0  0  0  0  0  0
    0.0059   -0.4772   -0.2333 C   0  0  0  0  0  0  0  0  0  0  0  0
   -1.4965   -0.7623   -0.2824 C   0  0  1  0  0  0  0  0  0  0  0  0
   -2.0743   -1.3889    1.0253 C   0  0  0  0  0  0  0  0  0  0  0  0
   -3.6126   -1.5812    0.9872 C   0  0  0  0  0  0  0  0  0  0  0  0
   -4.3358   -0.2788    0.5830 C   0  0  2  0  0  0  0  0  0  0  0  0
   -4.1893    0.7870    1.7174 C   0  0  0  0  0  0  0  0  0  0  0  0
   -5.9854   -1.4084   -0.3269 H   0  0  0  0  0  0  0  0  0  0  0  0
   -6.5507   -1.2654    1.8225 H   0  0  0  0  0  0  0  0  0  0  0  0
   -6.7732    0.3712   -1.5741 H   0  0  0  0  0  0  0  0  0  0  0  0
   -6.6441    1.5489   -0.2101 H   0  0  0  0  0  0  0  0  0  0  0  0
   -4.7727    1.2623   -2.3838 H   0  0  0  0  0  0  0  0  0  0  0  0
   -4.5235    2.2141   -0.8618 H   0  0  0  0  0  0  0  0  0  0  0  0
   -3.8635   -0.6862   -1.4931 H   0  0  0  0  0  0  0  0  0  0  0  0
   -2.1181    1.3274    0.0452 H   0  0  0  0  0  0  0  0  0  0  0  0
   -2.3354    1.8717   -2.4138 H   0  0  0  0  0  0  0  0  0  0  0  0
   -1.7805    0.2060   -2.8037 H   0  0  0  0  0  0  0  0  0  0  0  0
   -0.2844    2.4745   -1.3675 H   0  0  0  0  0  0  0  0  0  0  0  0
    0.1629    1.6189   -2.8815 H   0  0  0  0  0  0  0  0  0  0  0  0
    2.3840    1.5364   -1.6609 H   0  0  0  0  0  0  0  0  0  0  0  0
    6.1156    1.7882    0.0450 H   0  0  0  0  0  0  0  0  0  0  0  0
    8.4270    2.5183    0.4657 H   0  0  0  0  0  0  0  0  0  0  0  0
   10.2386    0.8496    0.7356 H   0  0  0  0  0  0  0  0  0  0  0  0
    9.7282   -1.5702    0.5827 H   0  0  0  0  0  0  0  0  0  0  0  0
    7.4263   -2.3319    0.1627 H   0  0  0  0  0  0  0  0  0  0  0  0
    2.8931   -1.7165    1.0936 H   0  0  0  0  0  0  0  0  0  0  0  0
    0.5169   -2.1175    1.1090 H   0  0  0  0  0  0  0  0  0  0  0  0
   -1.6359   -1.5263   -1.0809 H   0  0  0  0  0  0  0  0  0  0  0  0
   -1.6431   -2.3998    1.1773 H   0  0  0  0  0  0  0  0  0  0  0  0
   -1.7835   -0.7729    1.9018 H   0  0  0  0  0  0  0  0  0  0  0  0
   -3.8508   -2.3895    0.2606 H   0  0  0  0  0  0  0  0  0  0  0  0
   -3.9672   -1.9218    1.9842 H   0  0  0  0  0  0  0  0  0  0  0  0
   -4.6412    0.4067    2.6581 H   0  0  0  0  0  0  0  0  0  0  0  0
   -4.7012    1.7371    1.4604 H   0  0  0  0  0  0  0  0  0  0  0  0
   -3.1368    1.0289    1.9550 H   0  0  0  0  0  0  0  0  0  0  0  0
  1  2  1  0
  1  3  1  0
  3  4  1  0
  4  5  1  0
  5  6  1  0
  6  7  1  0
  7  8  1  0
  8  9  1  0
  9 10  2  0
 10 11  1  0
 11 12  1  0
 12 13  1  0
 13 14  2  0
 13 15  1  0
 15 16  2  0
 16 17  1  0
 17 18  2  0
 18 19  1  0
 19 20  2  0
 11 21  2  0
 21 22  1  0
 22 23  2  0
 23 24  1  0
 24 25  1  0
 25 26  1  0
 26 27  1  0
 27 28  1  1
 27  1  1  0
 27  5  1  0
 24  6  1  0
 23  9  1  0
 20 15  1  0
  1 29  1  6
  2 30  1  0
  3 31  1  0
  3 32  1  0
  4 33  1  0
  4 34  1  0
  5 35  1  6
  6 36  1  1
  7 37  1  0
  7 38  1  0
  8 39  1  0
  8 40  1  0
 10 41  1  0
 16 42  1  0
 17 43  1  0
 18 44  1  0
 19 45  1  0
 20 46  1  0
 21 47  1  0
 22 48  1  0
 24 49  1  6
 25 50  1  0
 25 51  1  0
 26 52  1  0
 26 53  1  0
 28 54  1  0
 28 55  1  0
 28 56  1  0
M  END
$$$$
