
     RDKit          3D

 54 53  0  0  0  0  0  0  0  0999 V2000
    1.9632    0.4000   -0.3227 C   0  0  2  0  0  0  0  0  0  0  0  0
    2.4495    1.8727   -0.4362 C   0  0  0  0  0  0  0  0  0  0  0  0
    3.3726    2.3122    0.7181 C   0  0  0  0  0  0  0  0  0  0  0  0
    4.7338    1.5990    0.7660 C   0  0  0  0  0  0  0  0  0  0  0  0
    5.6374    1.9655   -0.4112 C   0  0  0  0  0  0  0  0  0  0  0  0
    2.7230   -0.5270   -1.2939 C   0  0  0  0  0  0  0  0  0  0  0  0
    2.3751   -1.9282   -1.0531 N   0  0  0  0  0  0  0  0  0  0  0  0
    2.8978   -2.5660    0.0232 O   0  0  0  0  0  0  0  0  0  0  0  0
    1.4118   -2.5980   -1.8741 C   0  0  0  0  0  0  0  0  0  0  0  0
    1.1073   -3.7982   -1.6462 O   0  0  0  0  0  0  0  0  0  0  0  0
    0.4792    0.3087   -0.5925 C   0  0  0  0  0  0  0  0  0  0  0  0
    0.0174    0.7443   -1.6833 O   0  0  0  0  0  0  0  0  0  0  0  0
   -0.3960   -0.2930    0.3744 N   0  0  0  0  0  0  0  0  0  0  0  0
   -1.8465   -0.3989    0.1621 C   0  0  2  0  0  0  0  0  0  0  0  0
   -2.5122    0.8720    0.6629 C   0  0  0  0  0  0  0  0  0  0  0  0
   -2.1439    1.3437    1.7745 O   0  0  0  0  0  0  0  0  0  0  0  0
   -3.5627    1.5405   -0.0717 N   0  0  0  0  0  0  0  0  0  0  0  0
   -4.4019    2.5159    0.6316 C   0  0  0  0  0  0  0  0  0  0  0  0
   -3.7571    1.3130   -1.5079 C   0  0  0  0  0  0  0  0  0  0  0  0
   -2.4391   -1.7030    0.8111 C   0  0  0  0  0  0  0  0  0  0  0  0
   -3.9089   -1.8836    0.3691 C   0  0  0  0  0  0  0  0  0  0  0  0
   -2.3991   -1.6744    2.3581 C   0  0  0  0  0  0  0  0  0  0  0  0
   -1.6418   -2.9324    0.3195 C   0  0  0  0  0  0  0  0  0  0  0  0
    2.1517    0.0362    0.7114 H   0  0  0  0  0  0  0  0  0  0  0  0
    2.9375    2.0611   -1.4162 H   0  0  0  0  0  0  0  0  0  0  0  0
    1.5752    2.5612   -0.4062 H   0  0  0  0  0  0  0  0  0  0  0  0
    3.5440    3.4082    0.6402 H   0  0  0  0  0  0  0  0  0  0  0  0
    2.8468    2.1406    1.6827 H   0  0  0  0  0  0  0  0  0  0  0  0
    5.2498    1.9052    1.7017 H   0  0  0  0  0  0  0  0  0  0  0  0
    4.6009    0.4989    0.8186 H   0  0  0  0  0  0  0  0  0  0  0  0
    5.7636    3.0672   -0.4742 H   0  0  0  0  0  0  0  0  0  0  0  0
    5.2195    1.5886   -1.3666 H   0  0  0  0  0  0  0  0  0  0  0  0
    6.6367    1.5038   -0.2658 H   0  0  0  0  0  0  0  0  0  0  0  0
    2.5014   -0.2473   -2.3482 H   0  0  0  0  0  0  0  0  0  0  0  0
    3.8171   -0.4114   -1.1593 H   0  0  0  0  0  0  0  0  0  0  0  0
    3.7279   -2.9927   -0.3110 H   0  0  0  0  0  0  0  0  0  0  0  0
    0.9367   -2.0785   -2.6964 H   0  0  0  0  0  0  0  0  0  0  0  0
    0.0014   -0.5276    1.3102 H   0  0  0  0  0  0  0  0  0  0  0  0
   -2.0137   -0.4966   -0.9300 H   0  0  0  0  0  0  0  0  0  0  0  0
   -3.7769    3.3619    0.9877 H   0  0  0  0  0  0  0  0  0  0  0  0
   -5.2009    2.9227   -0.0231 H   0  0  0  0  0  0  0  0  0  0  0  0
   -4.8888    2.0287    1.5030 H   0  0  0  0  0  0  0  0  0  0  0  0
   -4.5088    2.0088   -1.9356 H   0  0  0  0  0  0  0  0  0  0  0  0
   -4.1141    0.2785   -1.6847 H   0  0  0  0  0  0  0  0  0  0  0  0
   -2.8014    1.4791   -2.0482 H   0  0  0  0  0  0  0  0  0  0  0  0
   -4.3404   -2.8113    0.8040 H   0  0  0  0  0  0  0  0  0  0  0  0
   -3.9809   -1.9614   -0.7368 H   0  0  0  0  0  0  0  0  0  0  0  0
   -4.5342   -1.0294    0.7052 H   0  0  0  0  0  0  0  0  0  0  0  0
   -3.0358   -0.8597    2.7616 H   0  0  0  0  0  0  0  0  0  0  0  0
   -1.3676   -1.5441    2.7420 H   0  0  0  0  0  0  0  0  0  0  0  0
   -2.7880   -2.6299    2.7722 H   0  0  0  0  0  0  0  0  0  0  0  0
   -1.6309   -2.9732   -0.7912 H   0  0  0  0  0  0  0  0  0  0  0  0
   -2.0955   -3.8748    0.6961 H   0  0  0  0  0  0  0  0  0  0  0  0
   -0.5912   -2.8978    0.6787 H   0  0  0  0  0  0  0  0  0  0  0  0
  1  2  1  0
  2  3  1  0
  3  4  1  0
  4  5  1  0
  1  6  1  0
  6  7  1  0
  7  8  1  0
  7  9  1  0
  9 10  2  0
  1 11  1  0
 11 12  2  0
 11 13  1  0
 13 14  1  0
 14 15  1  0
 15 16  2  0
 15 17  1  0
 17 18  1  0
 17 19  1  0
 14 20  1  0
 20 21  1  0
 20 22  1  0
 20 23  1  0
  1 24  1  1
  2 25  1  0
  2 26  1  0
  3 27  1  0
  3 28  1  0
  4 29  1  0
  4 30  1  0
  5 31  1  0
  5 32  1  0
  5 33  1  0
  6 34  1  0
  6 35  1  0
  8 36  1  0
  9 37  1  0
 13 38  1  0
 14 39  1  6
 18 40  1  0
 18 41  1  0
 18 42  1  0
 19 43  1  0
 19 44  1  0
 19 45  1  0
 21 46  1  0
 21 47  1  0
 21 48  1  0
 22 49  1  0
 22 50  1  0
 22 51  1  0
 23 52  1  0
 23 53  1  0
 23 54  1  0
M  END
$$$$
