
     RDKit          3D

 57 60  0  0  0  0  0  0  0  0999 V2000
    3.5504   -1.1054    2.4589 C   0  0  0  0  0  0  0  0  0  0  0  0
    2.9493   -0.0882    1.4732 C   0  0  2  0  0  0  0  0  0  0  0  0
    1.5347    0.3551    1.9297 C   0  0  0  0  0  0  0  0  0  0  0  0
    0.6123   -0.1267    0.8194 C   0  0  1  0  0  0  0  0  0  0  0  0
   -0.8239    0.4530    0.7217 C   0  0  2  0  0  0  0  0  0  0  0  0
   -1.5516    0.2920    2.0762 C   0  0  0  0  0  0  0  0  0  0  0  0
   -3.0027    0.7657    2.0068 C   0  0  2  0  0  0  0  0  0  0  0  0
   -3.6009    0.5427    3.2376 F   0  0  0  0  0  0  0  0  0  0  0  0
   -3.7224    0.0535    0.8797 C   0  0  0  0  0  0  0  0  0  0  0  0
   -4.8674   -0.6116    1.1150 C   0  0  0  0  0  0  0  0  0  0  0  0
   -5.5514   -1.3406    0.0479 C   0  0  0  0  0  0  0  0  0  0  0  0
   -6.6332   -1.9389    0.2897 O   0  0  0  0  0  0  0  0  0  0  0  0
   -4.9639   -1.3819   -1.2916 C   0  0  0  0  0  0  0  0  0  0  0  0
   -5.7457   -2.3016   -2.5695 Cl  0  0  0  0  0  0  0  0  0  0  0  0
   -3.8351   -0.7194   -1.5515 C   0  0  0  0  0  0  0  0  0  0  0  0
   -3.1114    0.1598   -0.5296 C   0  0  1  0  0  0  0  0  0  0  0  0
   -3.3074    1.6225   -1.0005 C   0  0  0  0  0  0  0  0  0  0  0  0
   -1.5981   -0.3045   -0.4209 C   0  0  2  0  0  0  0  0  0  0  0  0
   -1.6530   -1.6438   -0.0421 F   0  0  0  0  0  0  0  0  0  0  0  0
   -0.7871   -0.3004   -1.7769 C   0  0  1  0  0  0  0  0  0  0  0  0
   -0.8935    0.8847   -2.5227 O   0  0  0  0  0  0  0  0  0  0  0  0
    0.7044   -0.7117   -1.6133 C   0  0  0  0  0  0  0  0  0  0  0  0
    1.4443    0.0307   -0.4611 C   0  0  1  0  0  0  0  0  0  0  0  0
    1.7018    1.5305   -0.8488 C   0  0  0  0  0  0  0  0  0  0  0  0
    2.7973   -0.6226   -0.0072 C   0  0  2  0  0  0  0  0  0  0  0  0
    2.6412   -2.0285    0.0090 O   0  0  0  0  0  0  0  0  0  0  0  0
    3.9470   -0.2774   -0.9716 C   0  0  0  0  0  0  0  0  0  0  0  0
    3.8806   -0.6955   -2.1184 O   0  0  0  0  0  0  0  0  0  0  0  0
    5.1682    0.5164   -0.5840 C   0  0  0  0  0  0  0  0  0  0  0  0
    5.9236   -0.1977    0.3520 O   0  0  0  0  0  0  0  0  0  0  0  0
    3.6839   -0.6300    3.4540 H   0  0  0  0  0  0  0  0  0  0  0  0
    4.5435   -1.4522    2.1091 H   0  0  0  0  0  0  0  0  0  0  0  0
    2.8818   -1.9847    2.5790 H   0  0  0  0  0  0  0  0  0  0  0  0
    3.5933    0.8127    1.5102 H   0  0  0  0  0  0  0  0  0  0  0  0
    1.2396   -0.0864    2.9075 H   0  0  0  0  0  0  0  0  0  0  0  0
    1.4821    1.4631    2.0154 H   0  0  0  0  0  0  0  0  0  0  0  0
    0.4813   -1.2184    1.0162 H   0  0  0  0  0  0  0  0  0  0  0  0
   -0.7811    1.5367    0.5109 H   0  0  0  0  0  0  0  0  0  0  0  0
   -1.0309    0.8925    2.8531 H   0  0  0  0  0  0  0  0  0  0  0  0
   -1.5303   -0.7723    2.4006 H   0  0  0  0  0  0  0  0  0  0  0  0
   -3.0241    1.8601    1.8207 H   0  0  0  0  0  0  0  0  0  0  0  0
   -5.3013   -0.6451    2.1063 H   0  0  0  0  0  0  0  0  0  0  0  0
   -3.4618   -0.7419   -2.5674 H   0  0  0  0  0  0  0  0  0  0  0  0
   -3.1441    1.7354   -2.0920 H   0  0  0  0  0  0  0  0  0  0  0  0
   -2.6447    2.3313   -0.4669 H   0  0  0  0  0  0  0  0  0  0  0  0
   -4.3561    1.9437   -0.8158 H   0  0  0  0  0  0  0  0  0  0  0  0
   -1.2268   -1.0944   -2.4173 H   0  0  0  0  0  0  0  0  0  0  0  0
   -0.8145    1.6505   -1.9083 H   0  0  0  0  0  0  0  0  0  0  0  0
    0.7190   -1.8069   -1.4262 H   0  0  0  0  0  0  0  0  0  0  0  0
    1.2377   -0.5561   -2.5757 H   0  0  0  0  0  0  0  0  0  0  0  0
    0.8364    2.1938   -0.7130 H   0  0  0  0  0  0  0  0  0  0  0  0
    2.0339    1.6093   -1.9057 H   0  0  0  0  0  0  0  0  0  0  0  0
    2.4946    1.9902   -0.2258 H   0  0  0  0  0  0  0  0  0  0  0  0
    3.5337   -2.4442    0.1407 H   0  0  0  0  0  0  0  0  0  0  0  0
    4.8732    1.5076   -0.1786 H   0  0  0  0  0  0  0  0  0  0  0  0
    5.7924    0.7046   -1.4867 H   0  0  0  0  0  0  0  0  0  0  0  0
    6.6829    0.3909    0.6006 H   0  0  0  0  0  0  0  0  0  0  0  0
  1  2  1  0
  2  3  1  0
  3  4  1  0
  4  5  1  0
  5  6  1  0
  6  7  1  0
  7  8  1  0
  7  9  1  0
  9 10  2  0
 10 11  1  0
 11 12  2  0
 11 13  1  0
 13 14  1  0
 13 15  2  0
 15 16  1  0
 16 17  1  6
 16 18  1  0
 18 19  1  1
 18 20  1  0
 20 21  1  0
 20 22  1  0
 22 23  1  0
 23 24  1  6
 23 25  1  0
 25 26  1  1
 25 27  1  0
 27 28  2  0
 27 29  1  0
 29 30  1  0
 25  2  1  0
 23  4  1  0
 18  5  1  0
 16  9  1  0
  1 31  1  0
  1 32  1  0
  1 33  1  0
  2 34  1  6
  3 35  1  0
  3 36  1  0
  4 37  1  1
  5 38  1  6
  6 39  1  0
  6 40  1  0
  7 41  1  6
 10 42  1  0
 15 43  1  0
 17 44  1  0
 17 45  1  0
 17 46  1  0
 20 47  1  6
 21 48  1  0
 22 49  1  0
 22 50  1  0
 24 51  1  0
 24 52  1  0
 24 53  1  0
 26 54  1  0
 29 55  1  0
 29 56  1  0
 30 57  1  0
M  END
$$$$
