
     RDKit          3D

 58 61  0  0  0  0  0  0  0  0999 V2000
   -5.3914   -1.3389   -1.3028 C   0  0  0  0  0  0  0  0  0  0  0  0
   -3.9781   -1.6489   -0.8089 C   0  0  0  0  0  0  0  0  0  0  0  0
   -3.0358   -0.4343   -0.9292 C   0  0  2  0  0  0  0  0  0  0  0  0
   -1.6708   -0.8269   -0.5695 N   0  0  0  0  0  0  0  0  0  0  0  0
   -0.5150   -0.3307   -1.2619 C   0  0  0  0  0  0  0  0  0  0  0  0
   -0.6404    0.5485   -2.1569 O   0  0  0  0  0  0  0  0  0  0  0  0
    0.8348   -0.8401   -0.9211 C   0  0  0  0  0  0  0  0  0  0  0  0
    1.8404    0.0667   -0.5131 C   0  0  0  0  0  0  0  0  0  0  0  0
    1.5465    1.4656   -0.4024 N   0  0  0  0  0  0  0  0  0  0  0  0
    1.2893    2.2039    1.1427 S   0  0  0  0  0  6  0  0  0  0  0  0
   -0.4427    2.1580    1.5309 C   0  0  0  0  0  0  0  0  0  0  0  0
    2.0545    1.4669    2.2057 O   0  0  0  0  0  0  0  0  0  0  0  0
    1.7641    3.6284    1.0966 O   0  0  0  0  0  0  0  0  0  0  0  0
    3.1131   -0.4246   -0.1467 C   0  0  0  0  0  0  0  0  0  0  0  0
    3.3400   -1.7636   -0.1498 N   0  0  0  0  0  0  0  0  0  0  0  0
    2.4016   -2.6648   -0.5305 C   0  0  0  0  0  0  0  0  0  0  0  0
    2.7173   -4.0284   -0.5250 C   0  0  0  0  0  0  0  0  0  0  0  0
    1.7779   -4.9683   -0.9510 C   0  0  0  0  0  0  0  0  0  0  0  0
    0.5230   -4.5501   -1.3948 C   0  0  0  0  0  0  0  0  0  0  0  0
    0.1951   -3.1915   -1.4024 C   0  0  0  0  0  0  0  0  0  0  0  0
    1.1235   -2.2275   -0.9500 C   0  0  0  0  0  0  0  0  0  0  0  0
    4.2253    0.4719    0.2462 C   0  0  0  0  0  0  0  0  0  0  0  0
    4.5314    1.6231   -0.5030 C   0  0  0  0  0  0  0  0  0  0  0  0
    5.5890    2.4537   -0.1205 C   0  0  0  0  0  0  0  0  0  0  0  0
    6.3581    2.1372    1.0019 C   0  0  0  0  0  0  0  0  0  0  0  0
    6.0758    0.9850    1.7397 C   0  0  0  0  0  0  0  0  0  0  0  0
    5.0191    0.1513    1.3611 C   0  0  0  0  0  0  0  0  0  0  0  0
   -3.4767    0.7225   -0.0556 C   0  0  0  0  0  0  0  0  0  0  0  0
   -3.5582    0.5819    1.3428 C   0  0  0  0  0  0  0  0  0  0  0  0
   -3.9519    1.6606    2.1400 C   0  0  0  0  0  0  0  0  0  0  0  0
   -4.2648    2.8885    1.5524 C   0  0  0  0  0  0  0  0  0  0  0  0
   -4.1852    3.0398    0.1661 C   0  0  0  0  0  0  0  0  0  0  0  0
   -3.7929    1.9639   -0.6359 C   0  0  0  0  0  0  0  0  0  0  0  0
   -5.8648   -0.5606   -0.6677 H   0  0  0  0  0  0  0  0  0  0  0  0
   -6.0117   -2.2583   -1.2514 H   0  0  0  0  0  0  0  0  0  0  0  0
   -5.3649   -0.9875   -2.3561 H   0  0  0  0  0  0  0  0  0  0  0  0
   -4.0276   -2.0065    0.2418 H   0  0  0  0  0  0  0  0  0  0  0  0
   -3.5693   -2.4804   -1.4238 H   0  0  0  0  0  0  0  0  0  0  0  0
   -3.0509   -0.1263   -1.9991 H   0  0  0  0  0  0  0  0  0  0  0  0
   -1.5245   -1.4222    0.2778 H   0  0  0  0  0  0  0  0  0  0  0  0
    1.2562    1.9973   -1.2521 H   0  0  0  0  0  0  0  0  0  0  0  0
   -0.7616    1.1019    1.6421 H   0  0  0  0  0  0  0  0  0  0  0  0
   -1.0191    2.6341    0.7113 H   0  0  0  0  0  0  0  0  0  0  0  0
   -0.6293    2.7013    2.4799 H   0  0  0  0  0  0  0  0  0  0  0  0
    3.6950   -4.3610   -0.1982 H   0  0  0  0  0  0  0  0  0  0  0  0
    2.0272   -6.0215   -0.9484 H   0  0  0  0  0  0  0  0  0  0  0  0
   -0.1972   -5.2809   -1.7397 H   0  0  0  0  0  0  0  0  0  0  0  0
   -0.7783   -2.9093   -1.7787 H   0  0  0  0  0  0  0  0  0  0  0  0
    3.9645    1.8714   -1.3911 H   0  0  0  0  0  0  0  0  0  0  0  0
    5.8164    3.3399   -0.6988 H   0  0  0  0  0  0  0  0  0  0  0  0
    7.1769    2.7810    1.2959 H   0  0  0  0  0  0  0  0  0  0  0  0
    6.6760    0.7375    2.6057 H   0  0  0  0  0  0  0  0  0  0  0  0
    4.8102   -0.7354    1.9471 H   0  0  0  0  0  0  0  0  0  0  0  0
   -3.3054   -0.3570    1.8182 H   0  0  0  0  0  0  0  0  0  0  0  0
   -4.0083    1.5461    3.2147 H   0  0  0  0  0  0  0  0  0  0  0  0
   -4.5664    3.7234    2.1715 H   0  0  0  0  0  0  0  0  0  0  0  0
   -4.4257    3.9925   -0.2877 H   0  0  0  0  0  0  0  0  0  0  0  0
   -3.7335    2.1017   -1.7082 H   0  0  0  0  0  0  0  0  0  0  0  0
  1  2  1  0
  2  3  1  0
  3  4  1  0
  4  5  1  0
  5  6  2  0
  5  7  1  0
  7  8  2  0
  8  9  1  0
  9 10  1  0
 10 11  1  0
 10 12  2  0
 10 13  2  0
  8 14  1  0
 14 15  2  0
 15 16  1  0
 16 17  2  0
 17 18  1  0
 18 19  2  0
 19 20  1  0
 20 21  2  0
 14 22  1  0
 22 23  2  0
 23 24  1  0
 24 25  2  0
 25 26  1  0
 26 27  2  0
  3 28  1  0
 28 29  2  0
 29 30  1  0
 30 31  2  0
 31 32  1  0
 32 33  2  0
 21  7  1  0
 27 22  1  0
 33 28  1  0
 21 16  1  0
  1 34  1  0
  1 35  1  0
  1 36  1  0
  2 37  1  0
  2 38  1  0
  3 39  1  6
  4 40  1  0
  9 41  1  0
 11 42  1  0
 11 43  1  0
 11 44  1  0
 17 45  1  0
 18 46  1  0
 19 47  1  0
 20 48  1  0
 23 49  1  0
 24 50  1  0
 25 51  1  0
 26 52  1  0
 27 53  1  0
 29 54  1  0
 30 55  1  0
 31 56  1  0
 32 57  1  0
 33 58  1  0
M  END
$$$$
