
     RDKit          3D

 28 30  0  0  0  0  0  0  0  0999 V2000
    4.6610    2.1241    0.2480 F   0  0  0  0  0  0  0  0  0  0  0  0
    3.6203    1.2684    0.0966 C   0  0  0  0  0  0  0  0  0  0  0  0
    2.5393    1.3192    0.9807 C   0  0  0  0  0  0  0  0  0  0  0  0
    1.4659    0.4366    0.8273 C   0  0  0  0  0  0  0  0  0  0  0  0
    1.4592   -0.4970   -0.2246 C   0  0  0  0  0  0  0  0  0  0  0  0
    2.5603   -0.5551   -1.0950 C   0  0  0  0  0  0  0  0  0  0  0  0
    3.6323    0.3291   -0.9380 C   0  0  0  0  0  0  0  0  0  0  0  0
    0.3410   -1.4493   -0.3915 C   0  0  0  0  0  0  0  0  0  0  0  0
    0.5262   -2.7379   -0.7439 N   0  0  0  0  0  0  0  0  0  0  0  0
   -0.6537   -3.3362   -0.7349 N   0  0  0  0  0  0  0  0  0  0  0  0
   -1.6078   -2.4583   -0.3821 C   0  0  0  0  0  0  0  0  0  0  0  0
   -1.0156   -1.2304   -0.1608 C   0  0  0  0  0  0  0  0  0  0  0  0
   -1.7260    0.0325    0.1360 C   0  0  0  0  0  0  0  0  0  0  0  0
   -2.8291    0.0327    1.0030 C   0  0  0  0  0  0  0  0  0  0  0  0
   -3.5012    1.2292    1.2642 C   0  0  0  0  0  0  0  0  0  0  0  0
   -3.0956    2.3831    0.6713 N   0  0  0  0  0  0  0  0  0  0  0  0
   -2.0403    2.4108   -0.1848 C   0  0  0  0  0  0  0  0  0  0  0  0
   -1.3407    1.2369   -0.4737 C   0  0  0  0  0  0  0  0  0  0  0  0
    2.5350    2.0378    1.7901 H   0  0  0  0  0  0  0  0  0  0  0  0
    0.6509    0.4736    1.5387 H   0  0  0  0  0  0  0  0  0  0  0  0
    2.5843   -1.2760   -1.9031 H   0  0  0  0  0  0  0  0  0  0  0  0
    4.4725    0.2844   -1.6190 H   0  0  0  0  0  0  0  0  0  0  0  0
   -0.8038   -4.3406   -0.9760 H   0  0  0  0  0  0  0  0  0  0  0  0
   -2.6638   -2.6891   -0.3273 H   0  0  0  0  0  0  0  0  0  0  0  0
   -3.1583   -0.8804    1.4835 H   0  0  0  0  0  0  0  0  0  0  0  0
   -4.3467    1.2400    1.9389 H   0  0  0  0  0  0  0  0  0  0  0  0
   -1.7476    3.3440   -0.6471 H   0  0  0  0  0  0  0  0  0  0  0  0
   -0.5180    1.2681   -1.1765 H   0  0  0  0  0  0  0  0  0  0  0  0
  1  2  1  0
  2  3  2  0
  3  4  1  0
  4  5  2  0
  5  6  1  0
  6  7  2  0
  5  8  1  0
  8  9  2  0
  9 10  1  0
 10 11  1  0
 11 12  2  0
 12 13  1  0
 13 14  2  0
 14 15  1  0
 15 16  2  0
 16 17  1  0
 17 18  2  0
  7  2  1  0
 12  8  1  0
 18 13  1  0
  3 19  1  0
  4 20  1  0
  6 21  1  0
  7 22  1  0
 10 23  1  0
 11 24  1  0
 14 25  1  0
 15 26  1  0
 17 27  1  0
 18 28  1  0
M  END
$$$$
