
     RDKit          3D

 30 32  0  0  0  0  0  0  0  0999 V2000
   -0.2933    2.3489    1.3528 F   0  0  0  0  0  0  0  0  0  0  0  0
   -0.5798    1.2134    2.0924 C   0  0  0  0  0  0  0  0  0  0  0  0
   -1.9095    1.2569    2.4749 F   0  0  0  0  0  0  0  0  0  0  0  0
    0.2048    1.2198    3.2335 F   0  0  0  0  0  0  0  0  0  0  0  0
   -0.3056   -0.0632    1.2703 C   0  0  1  0  0  0  0  0  0  0  0  0
   -0.5060   -1.2009    2.1187 O   0  0  0  0  0  0  0  0  0  0  0  0
   -1.7151   -1.8906    2.1971 C   0  0  0  0  0  0  0  0  0  0  0  0
   -1.9092   -2.7168    3.1266 O   0  0  0  0  0  0  0  0  0  0  0  0
   -2.7078   -1.6882    1.1964 N   0  0  0  0  0  0  0  0  0  0  0  0
   -2.4057   -0.8667    0.0650 C   0  0  0  0  0  0  0  0  0  0  0  0
   -1.2173   -0.1027    0.0396 C   0  0  0  0  0  0  0  0  0  0  0  0
   -0.9534    0.7041   -1.0882 C   0  0  0  0  0  0  0  0  0  0  0  0
   -1.8345    0.7227   -2.1733 C   0  0  0  0  0  0  0  0  0  0  0  0
   -1.4833    1.7233   -3.5706 Cl  0  0  0  0  0  0  0  0  0  0  0  0
   -2.9996   -0.0459   -2.1408 C   0  0  0  0  0  0  0  0  0  0  0  0
   -3.2867   -0.8339   -1.0254 C   0  0  0  0  0  0  0  0  0  0  0  0
    1.1080   -0.0839    0.8523 C   0  0  0  0  0  0  0  0  0  0  0  0
    2.2605   -0.0957    0.4990 C   0  0  0  0  0  0  0  0  0  0  0  0
    3.6596   -0.1034    0.0570 C   0  0  0  0  0  0  0  0  0  0  0  0
    3.8311   -0.1674   -1.4513 C   0  0  0  0  0  0  0  0  0  0  0  0
    4.0722    1.1395   -0.7133 C   0  0  0  0  0  0  0  0  0  0  0  0
   -3.6123   -2.2092    1.2508 H   0  0  0  0  0  0  0  0  0  0  0  0
   -0.0670    1.3250   -1.1234 H   0  0  0  0  0  0  0  0  0  0  0  0
   -3.6858   -0.0303   -2.9780 H   0  0  0  0  0  0  0  0  0  0  0  0
   -4.1949   -1.4232   -1.0111 H   0  0  0  0  0  0  0  0  0  0  0  0
    4.4466   -0.5938    0.6677 H   0  0  0  0  0  0  0  0  0  0  0  0
    4.7619   -0.6707   -1.7882 H   0  0  0  0  0  0  0  0  0  0  0  0
    2.8966   -0.1768   -2.0542 H   0  0  0  0  0  0  0  0  0  0  0  0
    3.2801    1.9020   -0.8801 H   0  0  0  0  0  0  0  0  0  0  0  0
    5.1453    1.4076   -0.6145 H   0  0  0  0  0  0  0  0  0  0  0  0
  1  2  1  0
  2  3  1  0
  2  4  1  0
  2  5  1  0
  5  6  1  0
  6  7  1  0
  7  8  2  0
  7  9  1  0
  9 10  1  0
 10 11  2  0
 11 12  1  0
 12 13  2  0
 13 14  1  0
 13 15  1  0
 15 16  2  0
  5 17  1  6
 17 18  3  0
 18 19  1  0
 19 20  1  0
 20 21  1  0
 11  5  1  0
 21 19  1  0
 16 10  1  0
  9 22  1  0
 12 23  1  0
 15 24  1  0
 16 25  1  0
 19 26  1  0
 20 27  1  0
 20 28  1  0
 21 29  1  0
 21 30  1  0
M  END
$$$$
