
     RDKit          3D

 30 31  0  0  0  0  0  0  0  0999 V2000
   -2.9397    1.6750   -0.0654 C   0  0  0  0  0  0  0  0  0  0  0  0
   -2.5010    0.3783   -0.5788 N   0  0  0  0  0  0  0  0  0  0  0  0
   -3.3869   -0.3521   -1.4836 C   0  0  0  0  0  0  0  0  0  0  0  0
   -1.4795   -0.3387    0.1347 C   0  0  0  0  0  0  0  0  0  0  0  0
   -0.1135   -0.0014   -0.0116 C   0  0  0  0  0  0  0  0  0  0  0  0
    0.3036    1.0188   -0.8872 C   0  0  0  0  0  0  0  0  0  0  0  0
    1.6585    1.3337   -1.0138 C   0  0  0  0  0  0  0  0  0  0  0  0
    2.6213    0.6319   -0.2796 C   0  0  0  0  0  0  0  0  0  0  0  0
    2.2222   -0.3870    0.5937 C   0  0  0  0  0  0  0  0  0  0  0  0
    0.8641   -0.7141    0.7297 C   0  0  0  0  0  0  0  0  0  0  0  0
    0.4702   -1.7463    1.5938 C   0  0  0  0  0  0  0  0  0  0  0  0
   -0.8787   -2.0774    1.7236 C   0  0  0  0  0  0  0  0  0  0  0  0
   -1.8469   -1.3805    1.0000 C   0  0  0  0  0  0  0  0  0  0  0  0
    4.3265    1.0447   -0.4331 S   0  0  0  0  0  6  0  0  0  0  0  0
    4.7335    2.2010    0.7168 O   0  0  0  0  0  0  0  0  0  0  0  0
    4.5925    1.5958   -1.8059 O   0  0  0  0  0  0  0  0  0  0  0  0
    5.1728   -0.1822   -0.2378 O   0  0  0  0  0  0  0  0  0  0  0  0
   -2.1086    2.1918    0.4608 H   0  0  0  0  0  0  0  0  0  0  0  0
   -3.7801    1.5300    0.6457 H   0  0  0  0  0  0  0  0  0  0  0  0
   -3.2757    2.3220   -0.9030 H   0  0  0  0  0  0  0  0  0  0  0  0
   -3.7418    0.3195   -2.2936 H   0  0  0  0  0  0  0  0  0  0  0  0
   -2.8462   -1.2028   -1.9515 H   0  0  0  0  0  0  0  0  0  0  0  0
   -4.2622   -0.7404   -0.9214 H   0  0  0  0  0  0  0  0  0  0  0  0
   -0.4113    1.5754   -1.4795 H   0  0  0  0  0  0  0  0  0  0  0  0
    1.9558    2.1279   -1.6867 H   0  0  0  0  0  0  0  0  0  0  0  0
    2.9699   -0.9237    1.1661 H   0  0  0  0  0  0  0  0  0  0  0  0
    1.2058   -2.2992    2.1660 H   0  0  0  0  0  0  0  0  0  0  0  0
   -1.1758   -2.8759    2.3912 H   0  0  0  0  0  0  0  0  0  0  0  0
   -2.8900   -1.6436    1.1217 H   0  0  0  0  0  0  0  0  0  0  0  0
    4.5412    1.7720    1.5888 H   0  0  0  0  0  0  0  0  0  0  0  0
  1  2  1  0
  2  3  1  0
  2  4  1  0
  4  5  2  0
  5  6  1  0
  6  7  2  0
  7  8  1  0
  8  9  2  0
  9 10  1  0
 10 11  2  0
 11 12  1  0
 12 13  2  0
  8 14  1  0
 14 15  1  0
 14 16  2  0
 14 17  2  0
 13  4  1  0
 10  5  1  0
  1 18  1  0
  1 19  1  0
  1 20  1  0
  3 21  1  0
  3 22  1  0
  3 23  1  0
  6 24  1  0
  7 25  1  0
  9 26  1  0
 11 27  1  0
 12 28  1  0
 13 29  1  0
 15 30  1  0
M  END
$$$$
