
     RDKit          3D

 38 40  0  0  0  0  0  0  0  0999 V2000
   -5.2477    0.1362   -1.6682 C   0  0  0  0  0  0  0  0  0  0  0  0
   -4.9184   -0.0298   -0.1889 C   0  0  0  0  0  0  0  0  0  0  0  0
   -3.4821    0.1149    0.0375 N   0  0  0  0  0  0  0  0  0  0  0  0
   -2.8194    1.3881    0.0077 C   0  0  0  0  0  0  0  0  0  0  0  0
   -3.4826    2.4459   -0.1693 O   0  0  0  0  0  0  0  0  0  0  0  0
   -1.3366    1.4777    0.2340 C   0  0  2  0  0  0  0  0  0  0  0  0
   -0.6719    0.4814   -0.5127 O   0  0  0  0  0  0  0  0  0  0  0  0
    0.2799   -0.1324    0.3332 C   0  0  2  0  0  0  0  0  0  0  0  0
    0.3673    0.6443    1.6455 C   0  0  2  0  0  0  0  0  0  0  0  0
    0.5589   -0.2121    2.7405 O   0  0  0  0  0  0  0  0  0  0  0  0
   -0.9851    1.3018    1.7104 C   0  0  1  0  0  0  0  0  0  0  0  0
   -0.9634    2.5206    2.4150 O   0  0  0  0  0  0  0  0  0  0  0  0
    1.5839   -0.1765   -0.3296 N   0  0  0  0  0  0  0  0  0  0  0  0
    2.1657    0.7858   -1.0926 C   0  0  0  0  0  0  0  0  0  0  0  0
    3.4327    0.4731   -1.4826 N   0  0  0  0  0  0  0  0  0  0  0  0
    3.6274   -0.7338   -0.9178 C   0  0  0  0  0  0  0  0  0  0  0  0
    2.5306   -1.1165   -0.2252 C   0  0  0  0  0  0  0  0  0  0  0  0
    2.4709   -2.2801    0.4667 N   0  0  0  0  0  0  0  0  0  0  0  0
    3.5698   -3.0935    0.4466 C   0  0  0  0  0  0  0  0  0  0  0  0
    4.6934   -2.7290   -0.2517 N   0  0  0  0  0  0  0  0  0  0  0  0
    4.7514   -1.5515   -0.9435 C   0  0  0  0  0  0  0  0  0  0  0  0
    5.9323   -1.1854   -1.6573 N   0  0  0  0  0  0  0  0  0  0  0  0
   -4.6855   -0.6097   -2.2692 H   0  0  0  0  0  0  0  0  0  0  0  0
   -6.3352   -0.0216   -1.8275 H   0  0  0  0  0  0  0  0  0  0  0  0
   -4.9831    1.1573   -2.0141 H   0  0  0  0  0  0  0  0  0  0  0  0
   -5.4767    0.7178    0.4148 H   0  0  0  0  0  0  0  0  0  0  0  0
   -5.2406   -1.0427    0.1362 H   0  0  0  0  0  0  0  0  0  0  0  0
   -2.9314   -0.7382    0.2849 H   0  0  0  0  0  0  0  0  0  0  0  0
   -0.9747    2.4651   -0.1314 H   0  0  0  0  0  0  0  0  0  0  0  0
   -0.0687   -1.1709    0.5332 H   0  0  0  0  0  0  0  0  0  0  0  0
    1.1745    1.4139    1.6000 H   0  0  0  0  0  0  0  0  0  0  0  0
    1.5112   -0.4908    2.7141 H   0  0  0  0  0  0  0  0  0  0  0  0
   -1.7081    0.6125    2.2043 H   0  0  0  0  0  0  0  0  0  0  0  0
   -0.3192    3.1297    1.9678 H   0  0  0  0  0  0  0  0  0  0  0  0
    1.6805    1.7176   -1.3533 H   0  0  0  0  0  0  0  0  0  0  0  0
    3.5538   -4.0301    0.9865 H   0  0  0  0  0  0  0  0  0  0  0  0
    6.7625   -1.8184   -1.6572 H   0  0  0  0  0  0  0  0  0  0  0  0
    5.9838   -0.2868   -2.1868 H   0  0  0  0  0  0  0  0  0  0  0  0
  1  2  1  0
  2  3  1  0
  3  4  1  0
  4  5  2  0
  4  6  1  0
  6  7  1  0
  7  8  1  0
  8  9  1  0
  9 10  1  0
  9 11  1  0
 11 12  1  0
  8 13  1  0
 13 14  1  0
 14 15  2  0
 15 16  1  0
 16 17  2  0
 17 18  1  0
 18 19  2  0
 19 20  1  0
 20 21  2  0
 21 22  1  0
 11  6  1  0
 17 13  1  0
 21 16  1  0
  1 23  1  0
  1 24  1  0
  1 25  1  0
  2 26  1  0
  2 27  1  0
  3 28  1  0
  6 29  1  6
  8 30  1  1
  9 31  1  6
 10 32  1  0
 11 33  1  1
 12 34  1  0
 14 35  1  0
 19 36  1  0
 22 37  1  0
 22 38  1  0
M  END
$$$$
