
     RDKit          3D

 54 57  0  0  0  0  0  0  0  0999 V2000
    4.4430    0.3727   -2.8035 C   0  0  0  0  0  0  0  0  0  0  0  0
    3.8472   -1.0026   -2.6420 C   0  0  0  0  0  0  0  0  0  0  0  0
    4.3976   -1.7182   -1.4104 C   0  0  0  0  0  0  0  0  0  0  0  0
    4.2080    1.4153   -1.9920 C   0  0  0  0  0  0  0  0  0  0  0  0
    3.2788    1.3897   -0.8436 C   0  0  0  0  0  0  0  0  0  0  0  0
    3.7454    1.7161    0.4360 C   0  0  0  0  0  0  0  0  0  0  0  0
    5.0922    2.0232    0.6321 O   0  0  0  0  0  0  0  0  0  0  0  0
    2.8602    1.7261    1.5173 C   0  0  0  0  0  0  0  0  0  0  0  0
    1.5029    1.4189    1.3412 C   0  0  0  0  0  0  0  0  0  0  0  0
    0.6188    1.4084    2.5703 C   0  0  0  0  0  0  0  0  0  0  0  0
   -0.8772    1.3555    2.2494 C   0  0  0  0  0  0  0  0  0  0  0  0
   -1.1371    0.3134    1.1552 C   0  0  1  0  0  0  0  0  0  0  0  0
   -2.6403    0.1068    0.8921 C   0  0  2  0  0  0  0  0  0  0  0  0
   -3.5620   -0.2571    2.0488 C   0  0  0  0  0  0  0  0  0  0  0  0
   -4.7972   -0.8677    1.3616 C   0  0  0  0  0  0  0  0  0  0  0  0
   -4.4371   -1.0314   -0.1328 C   0  0  2  0  0  0  0  0  0  0  0  0
   -4.9416   -2.2320   -0.6593 O   0  0  0  0  0  0  0  0  0  0  0  0
   -2.8970   -0.9778   -0.1628 C   0  0  2  0  0  0  0  0  0  0  0  0
   -2.3159   -2.3816    0.2074 C   0  0  0  0  0  0  0  0  0  0  0  0
   -2.2914   -0.4938   -1.4975 C   0  0  0  0  0  0  0  0  0  0  0  0
   -0.7823   -0.1680   -1.3522 C   0  0  0  0  0  0  0  0  0  0  0  0
   -0.4699    0.7990   -0.1665 C   0  0  2  0  0  0  0  0  0  0  0  0
    1.0216    1.0597    0.0533 C   0  0  0  0  0  0  0  0  0  0  0  0
    1.9183    1.1094   -1.0346 C   0  0  0  0  0  0  0  0  0  0  0  0
    5.1418    0.5162   -3.6189 H   0  0  0  0  0  0  0  0  0  0  0  0
    4.1124   -1.6049   -3.5374 H   0  0  0  0  0  0  0  0  0  0  0  0
    2.7407   -0.9603   -2.5990 H   0  0  0  0  0  0  0  0  0  0  0  0
    5.5072   -1.7560   -1.4502 H   0  0  0  0  0  0  0  0  0  0  0  0
    4.0819   -1.2048   -0.4790 H   0  0  0  0  0  0  0  0  0  0  0  0
    4.0083   -2.7577   -1.3825 H   0  0  0  0  0  0  0  0  0  0  0  0
    4.7774    2.3226   -2.1532 H   0  0  0  0  0  0  0  0  0  0  0  0
    5.4556    2.2595    1.5481 H   0  0  0  0  0  0  0  0  0  0  0  0
    3.2327    1.9734    2.5043 H   0  0  0  0  0  0  0  0  0  0  0  0
    0.8868    0.5202    3.1832 H   0  0  0  0  0  0  0  0  0  0  0  0
    0.8167    2.3146    3.1835 H   0  0  0  0  0  0  0  0  0  0  0  0
   -1.2286    2.3589    1.9212 H   0  0  0  0  0  0  0  0  0  0  0  0
   -1.4244    1.0879    3.1787 H   0  0  0  0  0  0  0  0  0  0  0  0
   -0.6773   -0.6399    1.4907 H   0  0  0  0  0  0  0  0  0  0  0  0
   -3.0278    1.0816    0.5029 H   0  0  0  0  0  0  0  0  0  0  0  0
   -3.8392    0.6430    2.6398 H   0  0  0  0  0  0  0  0  0  0  0  0
   -3.0770   -0.9994    2.7196 H   0  0  0  0  0  0  0  0  0  0  0  0
   -5.6780   -0.1983    1.4712 H   0  0  0  0  0  0  0  0  0  0  0  0
   -5.0364   -1.8507    1.8236 H   0  0  0  0  0  0  0  0  0  0  0  0
   -4.8534   -0.1676   -0.7048 H   0  0  0  0  0  0  0  0  0  0  0  0
   -5.9261   -2.1206   -0.7195 H   0  0  0  0  0  0  0  0  0  0  0  0
   -1.2139   -2.3876    0.2980 H   0  0  0  0  0  0  0  0  0  0  0  0
   -2.5664   -3.1186   -0.5849 H   0  0  0  0  0  0  0  0  0  0  0  0
   -2.7321   -2.7625    1.1627 H   0  0  0  0  0  0  0  0  0  0  0  0
   -2.4294   -1.2688   -2.2825 H   0  0  0  0  0  0  0  0  0  0  0  0
   -2.8188    0.4224   -1.8448 H   0  0  0  0  0  0  0  0  0  0  0  0
   -0.4787    0.3013   -2.3103 H   0  0  0  0  0  0  0  0  0  0  0  0
   -0.1926   -1.1026   -1.2450 H   0  0  0  0  0  0  0  0  0  0  0  0
   -0.9163    1.7824   -0.4390 H   0  0  0  0  0  0  0  0  0  0  0  0
    1.5702    0.9562   -2.0439 H   0  0  0  0  0  0  0  0  0  0  0  0
  1  2  1  0
  2  3  1  0
  1  4  2  0
  4  5  1  0
  5  6  2  0
  6  7  1  0
  6  8  1  0
  8  9  2  0
  9 10  1  0
 10 11  1  0
 11 12  1  0
 12 13  1  0
 13 14  1  0
 14 15  1  0
 15 16  1  0
 16 17  1  0
 16 18  1  0
 18 19  1  1
 18 20  1  0
 20 21  1  0
 21 22  1  0
 22 23  1  0
 23 24  2  0
 24  5  1  0
 23  9  1  0
 22 12  1  0
 18 13  1  0
  1 25  1  0
  2 26  1  0
  2 27  1  0
  3 28  1  0
  3 29  1  0
  3 30  1  0
  4 31  1  0
  7 32  1  0
  8 33  1  0
 10 34  1  0
 10 35  1  0
 11 36  1  0
 11 37  1  0
 12 38  1  1
 13 39  1  6
 14 40  1  0
 14 41  1  0
 15 42  1  0
 15 43  1  0
 16 44  1  6
 17 45  1  0
 19 46  1  0
 19 47  1  0
 19 48  1  0
 20 49  1  0
 20 50  1  0
 21 51  1  0
 21 52  1  0
 22 53  1  6
 24 54  1  0
M  END
$$$$
