
     RDKit          3D

 45 48  0  0  0  0  0  0  0  0999 V2000
    2.1414    4.0977   -2.4434 C   0  0  0  0  0  0  0  0  0  0  0  0
    2.7235    2.9071   -1.9229 O   0  0  0  0  0  0  0  0  0  0  0  0
    2.0587    2.0065   -1.0780 C   0  0  0  0  0  0  0  0  0  0  0  0
    0.7211    2.2123   -0.6606 C   0  0  0  0  0  0  0  0  0  0  0  0
    0.1483    1.2633    0.1788 C   0  0  0  0  0  0  0  0  0  0  0  0
    0.8321    0.1620    0.5991 C   0  0  0  0  0  0  0  0  0  0  0  0
    0.0404   -0.5550    1.3523 O   0  0  0  0  0  0  0  0  0  0  0  0
   -1.1042    0.1029    1.3930 C   0  0  0  0  0  0  0  0  0  0  0  0
   -2.2425   -0.3684    2.1168 N   0  0  0  0  0  0  0  0  0  0  0  0
   -3.7351    0.5119    2.1396 S   0  0  0  0  0  6  0  0  0  0  0  0
   -4.6652   -0.1363    3.1258 O   0  0  0  0  0  0  0  0  0  0  0  0
   -3.4534    1.9216    2.5791 O   0  0  0  0  0  0  0  0  0  0  0  0
   -4.4948    0.5095    0.5421 C   0  0  0  0  0  0  0  0  0  0  0  0
   -3.9944   -0.3356   -0.4624 C   0  0  0  0  0  0  0  0  0  0  0  0
   -4.5733   -0.3458   -1.7350 C   0  0  0  0  0  0  0  0  0  0  0  0
   -3.9301   -1.3979   -2.9826 Cl  0  0  0  0  0  0  0  0  0  0  0  0
   -5.6646    0.4803   -2.0123 C   0  0  0  0  0  0  0  0  0  0  0  0
   -6.1815    1.3125   -1.0176 C   0  0  0  0  0  0  0  0  0  0  0  0
   -5.6073    1.3315    0.2594 C   0  0  0  0  0  0  0  0  0  0  0  0
   -6.3227    2.3842    1.4756 Cl  0  0  0  0  0  0  0  0  0  0  0  0
   -1.1009    1.2556    0.6737 N   0  0  0  0  0  0  0  0  0  0  0  0
    2.1554   -0.0885    0.2203 C   0  0  0  0  0  0  0  0  0  0  0  0
    2.7624    0.8602   -0.6365 C   0  0  0  0  0  0  0  0  0  0  0  0
    2.8888   -1.2916    0.6848 C   0  0  0  0  0  0  0  0  0  0  0  0
    3.7119   -2.0100   -0.2020 C   0  0  0  0  0  0  0  0  0  0  0  0
    4.4079   -3.1475    0.2331 C   0  0  0  0  0  0  0  0  0  0  0  0
    5.2376   -3.8749   -0.6766 N   0  0  0  0  0  0  0  0  0  0  0  0
    4.2836   -3.5690    1.5634 C   0  0  0  0  0  0  0  0  0  0  0  0
    3.4719   -2.8600    2.4512 C   0  0  0  0  0  0  0  0  0  0  0  0
    2.7782   -1.7274    2.0175 C   0  0  0  0  0  0  0  0  0  0  0  0
    1.8482    4.7740   -1.6128 H   0  0  0  0  0  0  0  0  0  0  0  0
    1.2553    3.8492   -3.0650 H   0  0  0  0  0  0  0  0  0  0  0  0
    2.8869    4.6179   -3.0791 H   0  0  0  0  0  0  0  0  0  0  0  0
    0.1453    3.0716   -0.9764 H   0  0  0  0  0  0  0  0  0  0  0  0
   -2.1788   -1.2704    2.6384 H   0  0  0  0  0  0  0  0  0  0  0  0
   -3.1572   -0.9905   -0.2632 H   0  0  0  0  0  0  0  0  0  0  0  0
   -6.1165    0.4744   -2.9961 H   0  0  0  0  0  0  0  0  0  0  0  0
   -7.0334    1.9425   -1.2401 H   0  0  0  0  0  0  0  0  0  0  0  0
    3.7891    0.7248   -0.9532 H   0  0  0  0  0  0  0  0  0  0  0  0
    3.8002   -1.6981   -1.2356 H   0  0  0  0  0  0  0  0  0  0  0  0
    5.7589   -4.7238   -0.3628 H   0  0  0  0  0  0  0  0  0  0  0  0
    5.3373   -3.5699   -1.6706 H   0  0  0  0  0  0  0  0  0  0  0  0
    4.8162   -4.4451    1.9116 H   0  0  0  0  0  0  0  0  0  0  0  0
    3.3836   -3.1861    3.4795 H   0  0  0  0  0  0  0  0  0  0  0  0
    2.1716   -1.1817    2.7290 H   0  0  0  0  0  0  0  0  0  0  0  0
  1  2  1  0
  2  3  1  0
  3  4  2  0
  4  5  1  0
  5  6  2  0
  6  7  1  0
  7  8  1  0
  8  9  1  0
  9 10  1  0
 10 11  2  0
 10 12  2  0
 10 13  1  0
 13 14  2  0
 14 15  1  0
 15 16  1  0
 15 17  2  0
 17 18  1  0
 18 19  2  0
 19 20  1  0
  8 21  2  0
  6 22  1  0
 22 23  2  0
 22 24  1  0
 24 25  2  0
 25 26  1  0
 26 27  1  0
 26 28  2  0
 28 29  1  0
 29 30  2  0
 23  3  1  0
 30 24  1  0
 21  5  1  0
 19 13  1  0
  1 31  1  0
  1 32  1  0
  1 33  1  0
  4 34  1  0
  9 35  1  0
 14 36  1  0
 17 37  1  0
 18 38  1  0
 23 39  1  0
 25 40  1  0
 27 41  1  0
 27 42  1  0
 28 43  1  0
 29 44  1  0
 30 45  1  0
M  END
$$$$
