
     RDKit          3D

 59 60  0  0  0  0  0  0  0  0999 V2000
   -3.6825    0.6083   -2.0111 C   0  0  0  0  0  0  0  0  0  0  0  0
   -2.9446    1.8737   -1.5466 C   0  0  0  0  0  0  0  0  0  0  0  0
   -2.6853    2.7912   -2.7494 C   0  0  0  0  0  0  0  0  0  0  0  0
   -1.6023    1.5461   -0.8455 C   0  0  0  0  0  0  0  0  0  0  0  0
   -1.7047    0.7270    0.4732 C   0  0  2  0  0  0  0  0  0  0  0  0
   -2.3421    1.4751    1.6760 C   0  0  2  0  0  0  0  0  0  0  0  0
   -3.7127    1.6788    1.4516 O   0  0  0  0  0  0  0  0  0  0  0  0
   -1.6508    2.7818    1.9955 C   0  0  0  0  0  0  0  0  0  0  0  0
   -0.6716    2.7834    2.7893 O   0  0  0  0  0  0  0  0  0  0  0  0
   -2.0755    4.0113    1.3975 N   0  0  0  0  0  0  0  0  0  0  0  0
   -1.4159    5.1651    1.6585 O   0  0  0  0  0  0  0  0  0  0  0  0
   -0.3374    0.2073    0.8564 C   0  0  0  0  0  0  0  0  0  0  0  0
    0.6623    0.9766    0.8102 O   0  0  0  0  0  0  0  0  0  0  0  0
   -0.1783   -1.1494    1.3004 N   0  0  0  0  0  0  0  0  0  0  0  0
    1.1469   -1.7649    1.4349 C   0  0  2  0  0  0  0  0  0  0  0  0
    1.7831   -1.9003    0.0788 C   0  0  0  0  0  0  0  0  0  0  0  0
    1.4227   -2.8169   -0.7103 O   0  0  0  0  0  0  0  0  0  0  0  0
    2.7108   -0.9371   -0.3311 O   0  0  0  0  0  0  0  0  0  0  0  0
    3.1855   -0.8260   -1.6735 C   0  0  0  0  0  0  0  0  0  0  0  0
    2.1090   -0.2278   -2.5739 C   0  0  0  0  0  0  0  0  0  0  0  0
    2.2858    1.2851   -2.4996 C   0  0  0  0  0  0  0  0  0  0  0  0
    3.6621    1.5403   -1.8889 C   0  0  0  0  0  0  0  0  0  0  0  0
    4.3230    0.1792   -1.7219 C   0  0  0  0  0  0  0  0  0  0  0  0
    1.0714   -3.1028    2.1500 C   0  0  0  0  0  0  0  0  0  0  0  0
    1.9085   -3.3585    3.2521 C   0  0  0  0  0  0  0  0  0  0  0  0
    1.8594   -4.5921    3.9086 C   0  0  0  0  0  0  0  0  0  0  0  0
    0.9810   -5.5853    3.4702 C   0  0  0  0  0  0  0  0  0  0  0  0
    0.1513   -5.3484    2.3722 C   0  0  0  0  0  0  0  0  0  0  0  0
    0.1960   -4.1169    1.7119 C   0  0  0  0  0  0  0  0  0  0  0  0
   -4.0645    0.0346   -1.1424 H   0  0  0  0  0  0  0  0  0  0  0  0
   -4.5636    0.8806   -2.6308 H   0  0  0  0  0  0  0  0  0  0  0  0
   -3.0114   -0.0405   -2.6139 H   0  0  0  0  0  0  0  0  0  0  0  0
   -3.6082    2.4315   -0.8576 H   0  0  0  0  0  0  0  0  0  0  0  0
   -2.0349    2.2859   -3.4957 H   0  0  0  0  0  0  0  0  0  0  0  0
   -2.1895    3.7287   -2.4178 H   0  0  0  0  0  0  0  0  0  0  0  0
   -3.6439    3.0681   -3.2380 H   0  0  0  0  0  0  0  0  0  0  0  0
   -0.9777    0.9724   -1.5669 H   0  0  0  0  0  0  0  0  0  0  0  0
   -1.0523    2.4910   -0.6459 H   0  0  0  0  0  0  0  0  0  0  0  0
   -2.3316   -0.1657    0.2713 H   0  0  0  0  0  0  0  0  0  0  0  0
   -2.2400    0.8098    2.5670 H   0  0  0  0  0  0  0  0  0  0  0  0
   -4.1170    1.9218    2.3258 H   0  0  0  0  0  0  0  0  0  0  0  0
   -2.8842    4.0313    0.7384 H   0  0  0  0  0  0  0  0  0  0  0  0
   -1.8888    5.5575    2.4364 H   0  0  0  0  0  0  0  0  0  0  0  0
   -1.0394   -1.7123    1.4834 H   0  0  0  0  0  0  0  0  0  0  0  0
    1.7798   -1.0781    2.0401 H   0  0  0  0  0  0  0  0  0  0  0  0
    3.5260   -1.8189   -2.0435 H   0  0  0  0  0  0  0  0  0  0  0  0
    1.0852   -0.5290   -2.2635 H   0  0  0  0  0  0  0  0  0  0  0  0
    2.2764   -0.5694   -3.6194 H   0  0  0  0  0  0  0  0  0  0  0  0
    1.4962    1.7321   -1.8567 H   0  0  0  0  0  0  0  0  0  0  0  0
    2.2151    1.7338   -3.5145 H   0  0  0  0  0  0  0  0  0  0  0  0
    3.5479    2.0245   -0.8938 H   0  0  0  0  0  0  0  0  0  0  0  0
    4.2755    2.1991   -2.5415 H   0  0  0  0  0  0  0  0  0  0  0  0
    4.9497    0.1393   -0.8042 H   0  0  0  0  0  0  0  0  0  0  0  0
    4.9648   -0.0320   -2.6061 H   0  0  0  0  0  0  0  0  0  0  0  0
    2.6008   -2.6044    3.6052 H   0  0  0  0  0  0  0  0  0  0  0  0
    2.5050   -4.7786    4.7572 H   0  0  0  0  0  0  0  0  0  0  0  0
    0.9454   -6.5397    3.9795 H   0  0  0  0  0  0  0  0  0  0  0  0
   -0.5257   -6.1205    2.0303 H   0  0  0  0  0  0  0  0  0  0  0  0
   -0.4503   -3.9568    0.8583 H   0  0  0  0  0  0  0  0  0  0  0  0
  1  2  1  0
  2  3  1  0
  2  4  1  0
  4  5  1  0
  5  6  1  0
  6  7  1  0
  6  8  1  0
  8  9  2  0
  8 10  1  0
 10 11  1  0
  5 12  1  0
 12 13  2  0
 12 14  1  0
 14 15  1  0
 15 16  1  0
 16 17  2  0
 16 18  1  0
 18 19  1  0
 19 20  1  0
 20 21  1  0
 21 22  1  0
 22 23  1  0
 15 24  1  0
 24 25  2  0
 25 26  1  0
 26 27  2  0
 27 28  1  0
 28 29  2  0
 23 19  1  0
 29 24  1  0
  1 30  1  0
  1 31  1  0
  1 32  1  0
  2 33  1  0
  3 34  1  0
  3 35  1  0
  3 36  1  0
  4 37  1  0
  4 38  1  0
  5 39  1  6
  6 40  1  1
  7 41  1  0
 10 42  1  0
 11 43  1  0
 14 44  1  0
 15 45  1  1
 19 46  1  0
 20 47  1  0
 20 48  1  0
 21 49  1  0
 21 50  1  0
 22 51  1  0
 22 52  1  0
 23 53  1  0
 23 54  1  0
 25 55  1  0
 26 56  1  0
 27 57  1  0
 28 58  1  0
 29 59  1  0
M  END
$$$$
