
     RDKit          3D

 28 27  0  0  0  0  0  0  0  0999 V2000
    5.0018    0.3712   -0.6479 N   0  0  0  0  0  0  0  0  0  0  0  0
    3.7879   -0.3319   -0.3722 C   0  0  0  0  0  0  0  0  0  0  0  0
    3.6447   -0.9623    0.7512 N   0  0  0  0  0  0  0  0  0  0  0  0
    2.7371   -0.3433   -1.3500 N   0  0  0  0  0  0  0  0  0  0  0  0
    1.4551   -1.0144   -1.1381 C   0  0  0  0  0  0  0  0  0  0  0  0
    0.5701   -0.1954   -0.2014 C   0  0  0  0  0  0  0  0  0  0  0  0
   -1.0411   -1.0294    0.0089 S   0  0  0  0  0  0  0  0  0  0  0  0
   -1.7818    0.2230    1.1313 C   0  0  1  0  0  0  0  0  0  0  0  0
   -2.3888    1.4078    0.3546 C   0  0  0  0  0  0  0  0  0  0  0  0
   -3.4586    0.9930   -0.6127 C   0  0  0  0  0  0  0  0  0  0  0  0
   -3.1168    0.6277   -1.9111 O   0  0  0  0  0  0  0  0  0  0  0  0
   -4.6635    0.9563   -0.2454 O   0  0  0  0  0  0  0  0  0  0  0  0
   -2.8102   -0.4284    2.0132 C   0  0  0  0  0  0  0  0  0  0  0  0
   -3.6806   -1.3838    1.4946 O   0  0  0  0  0  0  0  0  0  0  0  0
   -2.9140   -0.0786    3.2195 O   0  0  0  0  0  0  0  0  0  0  0  0
    5.1242    0.8800   -1.5513 H   0  0  0  0  0  0  0  0  0  0  0  0
    5.7813    0.3895    0.0469 H   0  0  0  0  0  0  0  0  0  0  0  0
    4.3963   -0.9713    1.4763 H   0  0  0  0  0  0  0  0  0  0  0  0
    2.9118    0.1052   -2.2775 H   0  0  0  0  0  0  0  0  0  0  0  0
    1.6238   -2.0319   -0.7231 H   0  0  0  0  0  0  0  0  0  0  0  0
    0.9382   -1.1253   -2.1163 H   0  0  0  0  0  0  0  0  0  0  0  0
    0.4180    0.8144   -0.6357 H   0  0  0  0  0  0  0  0  0  0  0  0
    1.0621   -0.0954    0.7888 H   0  0  0  0  0  0  0  0  0  0  0  0
   -0.9820    0.6230    1.7926 H   0  0  0  0  0  0  0  0  0  0  0  0
   -1.5894    1.9373   -0.2040 H   0  0  0  0  0  0  0  0  0  0  0  0
   -2.8116    2.1418    1.0754 H   0  0  0  0  0  0  0  0  0  0  0  0
   -3.8263    0.3351   -2.5722 H   0  0  0  0  0  0  0  0  0  0  0  0
   -4.3879   -1.8139    2.0784 H   0  0  0  0  0  0  0  0  0  0  0  0
  1  2  1  0
  2  3  2  3
  2  4  1  0
  4  5  1  0
  5  6  1  0
  6  7  1  0
  7  8  1  0
  8  9  1  0
  9 10  1  0
 10 11  1  0
 10 12  2  0
  8 13  1  0
 13 14  1  0
 13 15  2  0
  1 16  1  0
  1 17  1  0
  3 18  1  0
  4 19  1  0
  5 20  1  0
  5 21  1  0
  6 22  1  0
  6 23  1  0
  8 24  1  1
  9 25  1  0
  9 26  1  0
 11 27  1  0
 14 28  1  0
M  END
$$$$
