
     RDKit          3D

 43 45  0  0  0  0  0  0  0  0999 V2000
   -7.9047   -0.3307   -0.0815 F   0  0  0  0  0  0  0  0  0  0  0  0
   -6.5925   -0.0254    0.0725 C   0  0  0  0  0  0  0  0  0  0  0  0
   -6.0750    1.1484   -0.4852 C   0  0  0  0  0  0  0  0  0  0  0  0
   -6.8843    1.9839   -1.1823 F   0  0  0  0  0  0  0  0  0  0  0  0
   -4.7210    1.4612   -0.3265 C   0  0  0  0  0  0  0  0  0  0  0  0
   -3.8758    0.6023    0.3949 C   0  0  0  0  0  0  0  0  0  0  0  0
   -2.4151    0.9354    0.5461 C   0  0  0  0  0  0  0  0  0  0  0  0
   -1.7203    0.8312   -0.7561 N   0  0  0  0  0  0  0  0  0  0  0  0
   -1.5387   -0.5639   -1.2210 C   0  0  0  0  0  0  0  0  0  0  0  0
   -0.4383   -1.3145   -0.4513 C   0  0  0  0  0  0  0  0  0  0  0  0
    0.8861   -0.5355   -0.4843 C   0  0  0  0  0  0  0  0  0  0  0  0
    0.6587    0.8948    0.0267 C   0  0  0  0  0  0  0  0  0  0  0  0
   -0.4489    1.5853   -0.7829 C   0  0  0  0  0  0  0  0  0  0  0  0
    1.8978   -1.2133    0.3372 N   0  0  0  0  0  0  0  0  0  0  0  0
    3.3111   -0.9466    0.2819 C   0  0  0  0  0  0  0  0  0  0  0  0
    3.8815   -0.0917   -0.6748 C   0  0  0  0  0  0  0  0  0  0  0  0
    5.2590    0.1153   -0.6708 C   0  0  0  0  0  0  0  0  0  0  0  0
    6.0479   -0.5341    0.2823 C   0  0  0  0  0  0  0  0  0  0  0  0
    5.4491   -1.3576    1.1835 N   0  0  0  0  0  0  0  0  0  0  0  0
    4.1298   -1.5561    1.1816 N   0  0  0  0  0  0  0  0  0  0  0  0
    7.5346   -0.3334    0.3101 C   0  0  0  0  0  0  0  0  0  0  0  0
    8.0825   -0.7546   -0.8877 F   0  0  0  0  0  0  0  0  0  0  0  0
    7.8196    1.0072    0.4949 F   0  0  0  0  0  0  0  0  0  0  0  0
    8.1039   -1.0584    1.3425 F   0  0  0  0  0  0  0  0  0  0  0  0
   -4.4017   -0.5771    0.9485 C   0  0  0  0  0  0  0  0  0  0  0  0
   -5.7557   -0.8871    0.7877 C   0  0  0  0  0  0  0  0  0  0  0  0
   -4.3285    2.3702   -0.7658 H   0  0  0  0  0  0  0  0  0  0  0  0
   -2.3550    1.9768    0.9331 H   0  0  0  0  0  0  0  0  0  0  0  0
   -1.9391    0.2916    1.3152 H   0  0  0  0  0  0  0  0  0  0  0  0
   -2.4913   -1.1300   -1.1444 H   0  0  0  0  0  0  0  0  0  0  0  0
   -1.2753   -0.5495   -2.3014 H   0  0  0  0  0  0  0  0  0  0  0  0
   -0.2874   -2.3105   -0.9216 H   0  0  0  0  0  0  0  0  0  0  0  0
   -0.7593   -1.4913    0.5971 H   0  0  0  0  0  0  0  0  0  0  0  0
    1.2273   -0.5091   -1.5425 H   0  0  0  0  0  0  0  0  0  0  0  0
    1.5919    1.4882   -0.0704 H   0  0  0  0  0  0  0  0  0  0  0  0
    0.3870    0.8766    1.1042 H   0  0  0  0  0  0  0  0  0  0  0  0
   -0.1143    1.6933   -1.8382 H   0  0  0  0  0  0  0  0  0  0  0  0
   -0.6002    2.6181   -0.3996 H   0  0  0  0  0  0  0  0  0  0  0  0
    1.5826   -1.9399    1.0203 H   0  0  0  0  0  0  0  0  0  0  0  0
    3.2842    0.4117   -1.4209 H   0  0  0  0  0  0  0  0  0  0  0  0
    5.7074    0.7739   -1.4046 H   0  0  0  0  0  0  0  0  0  0  0  0
   -3.7643   -1.2579    1.4991 H   0  0  0  0  0  0  0  0  0  0  0  0
   -6.1549   -1.7972    1.2165 H   0  0  0  0  0  0  0  0  0  0  0  0
  1  2  1  0
  2  3  2  0
  3  4  1  0
  3  5  1  0
  5  6  2  0
  6  7  1  0
  7  8  1  0
  8  9  1  0
  9 10  1  0
 10 11  1  0
 11 12  1  0
 12 13  1  0
 11 14  1  0
 14 15  1  0
 15 16  2  0
 16 17  1  0
 17 18  2  0
 18 19  1  0
 19 20  2  0
 18 21  1  0
 21 22  1  0
 21 23  1  0
 21 24  1  0
  6 25  1  0
 25 26  2  0
 26  2  1  0
 13  8  1  0
 20 15  1  0
  5 27  1  0
  7 28  1  0
  7 29  1  0
  9 30  1  0
  9 31  1  0
 10 32  1  0
 10 33  1  0
 11 34  1  0
 12 35  1  0
 12 36  1  0
 13 37  1  0
 13 38  1  0
 14 39  1  0
 16 40  1  0
 17 41  1  0
 25 42  1  0
 26 43  1  0
M  END
$$$$
