
     RDKit          3D

 27 26  0  0  0  0  0  0  0  0999 V2000
   -2.8666   -1.2385   -0.4719 C   0  0  1  0  0  0  0  0  0  0  0  0
   -3.1198   -0.7626   -1.7716 O   0  0  0  0  0  0  0  0  0  0  0  0
   -1.3537   -1.3499   -0.1874 C   0  0  0  0  0  0  0  0  0  0  0  0
   -0.6105   -0.0024   -0.1901 C   0  0  0  0  0  0  0  0  0  0  0  0
    0.8649   -0.1908    0.1843 C   0  0  0  0  0  0  0  0  0  0  0  0
    1.6136    1.1503    0.1641 C   0  0  0  0  0  0  0  0  0  0  0  0
    3.0648    1.0238    0.6527 C   0  0  0  0  0  0  0  0  0  0  0  0
    3.9591    0.2777   -0.3370 C   0  0  0  0  0  0  0  0  0  0  0  0
   -3.5882   -0.4265    0.5738 C   0  0  0  0  0  0  0  0  0  0  0  0
   -3.8381    0.9283    0.3718 O   0  0  0  0  0  0  0  0  0  0  0  0
   -3.9324   -0.9692    1.6580 O   0  0  0  0  0  0  0  0  0  0  0  0
   -3.2779   -2.2705   -0.4245 H   0  0  0  0  0  0  0  0  0  0  0  0
   -2.8453    0.1891   -1.8159 H   0  0  0  0  0  0  0  0  0  0  0  0
   -0.8990   -2.0155   -0.9537 H   0  0  0  0  0  0  0  0  0  0  0  0
   -1.2161   -1.8408    0.8017 H   0  0  0  0  0  0  0  0  0  0  0  0
   -1.0825    0.6889    0.5407 H   0  0  0  0  0  0  0  0  0  0  0  0
   -0.6656    0.4544   -1.2013 H   0  0  0  0  0  0  0  0  0  0  0  0
    0.9315   -0.6355    1.2017 H   0  0  0  0  0  0  0  0  0  0  0  0
    1.3329   -0.8908   -0.5406 H   0  0  0  0  0  0  0  0  0  0  0  0
    1.0880    1.8653    0.8344 H   0  0  0  0  0  0  0  0  0  0  0  0
    1.5982    1.5777   -0.8627 H   0  0  0  0  0  0  0  0  0  0  0  0
    3.0936    0.5129    1.6396 H   0  0  0  0  0  0  0  0  0  0  0  0
    3.4781    2.0463    0.7921 H   0  0  0  0  0  0  0  0  0  0  0  0
    5.0123    0.3223    0.0120 H   0  0  0  0  0  0  0  0  0  0  0  0
    3.6643   -0.7897   -0.4066 H   0  0  0  0  0  0  0  0  0  0  0  0
    3.9008    0.7450   -1.3430 H   0  0  0  0  0  0  0  0  0  0  0  0
   -4.3062    1.4816    1.0794 H   0  0  0  0  0  0  0  0  0  0  0  0
  1  2  1  0
  1  3  1  0
  3  4  1  0
  4  5  1  0
  5  6  1  0
  6  7  1  0
  7  8  1  0
  1  9  1  0
  9 10  1  0
  9 11  2  0
  1 12  1  6
  2 13  1  0
  3 14  1  0
  3 15  1  0
  4 16  1  0
  4 17  1  0
  5 18  1  0
  5 19  1  0
  6 20  1  0
  6 21  1  0
  7 22  1  0
  7 23  1  0
  8 24  1  0
  8 25  1  0
  8 26  1  0
 10 27  1  0
M  END
$$$$
