
     RDKit          3D

 17 17  0  0  0  0  0  0  0  0999 V2000
   -2.1695    1.0663    0.2304 N   0  0  0  0  0  0  0  0  0  0  0  0
   -1.9038   -0.3697    0.3148 C   0  0  0  0  0  0  0  0  0  0  0  0
   -0.8411   -0.8244   -0.6974 C   0  0  0  0  0  0  0  0  0  0  0  0
    0.5090   -0.2570   -0.3790 C   0  0  0  0  0  0  0  0  0  0  0  0
    1.3622   -0.7029    0.6055 C   0  0  0  0  0  0  0  0  0  0  0  0
    2.4426    0.0917    0.6030 N   0  0  0  0  0  0  0  0  0  0  0  0
    2.2223    0.9980   -0.3684 C   0  0  0  0  0  0  0  0  0  0  0  0
    1.0390    0.8198   -0.9933 N   0  0  0  0  0  0  0  0  0  0  0  0
   -1.3061    1.5914    0.4986 H   0  0  0  0  0  0  0  0  0  0  0  0
   -2.4033    1.3138   -0.7586 H   0  0  0  0  0  0  0  0  0  0  0  0
   -1.5832   -0.6280    1.3478 H   0  0  0  0  0  0  0  0  0  0  0  0
   -2.8484   -0.9187    0.1120 H   0  0  0  0  0  0  0  0  0  0  0  0
   -1.1419   -0.5254   -1.7247 H   0  0  0  0  0  0  0  0  0  0  0  0
   -0.7767   -1.9336   -0.6779 H   0  0  0  0  0  0  0  0  0  0  0  0
    1.2064   -1.5365    1.2779 H   0  0  0  0  0  0  0  0  0  0  0  0
    3.2762    0.0256    1.2277 H   0  0  0  0  0  0  0  0  0  0  0  0
    2.9164    1.7894   -0.6183 H   0  0  0  0  0  0  0  0  0  0  0  0
  1  2  1  0
  2  3  1  0
  3  4  1  0
  4  5  2  0
  5  6  1  0
  6  7  1  0
  7  8  2  0
  8  4  1  0
  1  9  1  0
  1 10  1  0
  2 11  1  0
  2 12  1  0
  3 13  1  0
  3 14  1  0
  5 15  1  0
  6 16  1  0
  7 17  1  0
M  END
$$$$
