
     RDKit          3D

 68 71  0  0  0  0  0  0  0  0999 V2000
   -5.2276    0.0883   -1.3375 C   0  0  1  0  0  0  0  0  0  0  0  0
   -5.0680    1.2417   -2.3594 C   0  0  0  0  0  0  0  0  0  0  0  0
   -3.5742    1.6184   -2.3597 C   0  0  0  0  0  0  0  0  0  0  0  0
   -2.9171    0.5408   -1.5045 C   0  0  1  0  0  0  0  0  0  0  0  0
   -1.5228    0.8028   -0.8990 C   0  0  2  0  0  0  0  0  0  0  0  0
   -0.5113    1.2017   -1.9927 C   0  0  0  0  0  0  0  0  0  0  0  0
    0.9058    1.3450   -1.4254 C   0  0  0  0  0  0  0  0  0  0  0  0
    1.3435    0.0404   -0.7363 C   0  0  1  0  0  0  0  0  0  0  0  0
    2.8276    0.0831   -0.3245 C   0  0  0  0  0  0  0  0  0  0  0  0
    3.2740   -1.2819    0.2282 C   0  0  2  0  0  0  0  0  0  0  0  0
    2.3739   -1.7286    1.3875 C   0  0  0  0  0  0  0  0  0  0  0  0
    0.8838   -1.7313    0.9981 C   0  0  0  0  0  0  0  0  0  0  0  0
    0.3905   -0.3596    0.4425 C   0  0  1  0  0  0  0  0  0  0  0  0
    0.4080    0.6859    1.6004 C   0  0  0  0  0  0  0  0  0  0  0  0
   -1.0591   -0.5048   -0.1627 C   0  0  1  0  0  0  0  0  0  0  0  0
   -2.1324   -1.0265    0.8463 C   0  0  0  0  0  0  0  0  0  0  0  0
   -3.5468   -1.1361    0.2255 C   0  0  0  0  0  0  0  0  0  0  0  0
   -3.9704    0.1909   -0.4427 C   0  0  2  0  0  0  0  0  0  0  0  0
   -4.1614    1.3010    0.6428 C   0  0  0  0  0  0  0  0  0  0  0  0
    4.6206   -1.2039    0.6957 O   0  0  0  0  0  0  0  0  0  0  0  0
    5.7324   -1.1620   -0.1530 C   0  0  0  0  0  0  0  0  0  0  0  0
    5.5958   -1.2571   -1.4034 O   0  0  0  0  0  0  0  0  0  0  0  0
    7.0930   -0.9586    0.4320 C   0  0  0  0  0  0  0  0  0  0  0  0
    7.3647    0.5322    0.6373 C   0  0  0  0  0  0  0  0  0  0  0  0
    8.7238    0.7399    1.2263 C   0  0  0  0  0  0  0  0  0  0  0  0
    9.8301    0.8588    0.3911 O   0  0  0  0  0  0  0  0  0  0  0  0
    8.8727    0.7672    2.4773 O   0  0  0  0  0  0  0  0  0  0  0  0
   -6.5530    0.0951   -0.5957 C   0  0  0  0  0  0  0  0  0  0  0  0
   -7.2513   -1.1899   -0.2629 C   0  0  0  0  0  0  0  0  0  0  0  0
   -7.0619    1.1495   -0.2441 O   0  0  0  0  0  0  0  0  0  0  0  0
   -5.1692   -0.8623   -1.9172 H   0  0  0  0  0  0  0  0  0  0  0  0
   -5.3863    0.9047   -3.3703 H   0  0  0  0  0  0  0  0  0  0  0  0
   -5.6693    2.1345   -2.0825 H   0  0  0  0  0  0  0  0  0  0  0  0
   -3.4223    2.6229   -1.9077 H   0  0  0  0  0  0  0  0  0  0  0  0
   -3.1621    1.6173   -3.3925 H   0  0  0  0  0  0  0  0  0  0  0  0
   -2.7977   -0.3390   -2.1855 H   0  0  0  0  0  0  0  0  0  0  0  0
   -1.5913    1.6552   -0.1984 H   0  0  0  0  0  0  0  0  0  0  0  0
   -0.8091    2.1735   -2.4424 H   0  0  0  0  0  0  0  0  0  0  0  0
   -0.5061    0.4398   -2.8037 H   0  0  0  0  0  0  0  0  0  0  0  0
    1.5960    1.5698   -2.2679 H   0  0  0  0  0  0  0  0  0  0  0  0
    0.9541    2.2029   -0.7220 H   0  0  0  0  0  0  0  0  0  0  0  0
    1.2729   -0.7562   -1.5145 H   0  0  0  0  0  0  0  0  0  0  0  0
    3.4423    0.3219   -1.2191 H   0  0  0  0  0  0  0  0  0  0  0  0
    3.0180    0.8848    0.4188 H   0  0  0  0  0  0  0  0  0  0  0  0
    3.2069   -2.0486   -0.5772 H   0  0  0  0  0  0  0  0  0  0  0  0
    2.5407   -1.0772    2.2713 H   0  0  0  0  0  0  0  0  0  0  0  0
    2.6638   -2.7586    1.6888 H   0  0  0  0  0  0  0  0  0  0  0  0
    0.3030   -2.0174    1.9006 H   0  0  0  0  0  0  0  0  0  0  0  0
    0.7227   -2.5266    0.2367 H   0  0  0  0  0  0  0  0  0  0  0  0
   -0.1730    0.3220    2.4720 H   0  0  0  0  0  0  0  0  0  0  0  0
    1.4304    0.8821    1.9728 H   0  0  0  0  0  0  0  0  0  0  0  0
   -0.0085    1.6650    1.3023 H   0  0  0  0  0  0  0  0  0  0  0  0
   -0.9943   -1.2977   -0.9444 H   0  0  0  0  0  0  0  0  0  0  0  0
   -2.1785   -0.3815    1.7446 H   0  0  0  0  0  0  0  0  0  0  0  0
   -1.8540   -2.0423    1.1950 H   0  0  0  0  0  0  0  0  0  0  0  0
   -4.2774   -1.4144    1.0158 H   0  0  0  0  0  0  0  0  0  0  0  0
   -3.5441   -1.9592   -0.5231 H   0  0  0  0  0  0  0  0  0  0  0  0
   -4.5064    2.2571    0.1982 H   0  0  0  0  0  0  0  0  0  0  0  0
   -4.9187    0.9798    1.3887 H   0  0  0  0  0  0  0  0  0  0  0  0
   -3.2404    1.5174    1.2145 H   0  0  0  0  0  0  0  0  0  0  0  0
    7.8592   -1.3939   -0.2470 H   0  0  0  0  0  0  0  0  0  0  0  0
    7.1497   -1.4903    1.4068 H   0  0  0  0  0  0  0  0  0  0  0  0
    6.5974    0.9674    1.3152 H   0  0  0  0  0  0  0  0  0  0  0  0
    7.3073    1.0635   -0.3378 H   0  0  0  0  0  0  0  0  0  0  0  0
   10.7593    0.9837    0.7745 H   0  0  0  0  0  0  0  0  0  0  0  0
   -8.2436   -1.2132   -0.7597 H   0  0  0  0  0  0  0  0  0  0  0  0
   -7.3921   -1.2604    0.8360 H   0  0  0  0  0  0  0  0  0  0  0  0
   -6.6617   -2.0688   -0.5980 H   0  0  0  0  0  0  0  0  0  0  0  0
  1  2  1  0
  2  3  1  0
  3  4  1  0
  4  5  1  0
  5  6  1  0
  6  7  1  0
  7  8  1  0
  8  9  1  0
  9 10  1  0
 10 11  1  0
 11 12  1  0
 12 13  1  0
 13 14  1  1
 13 15  1  0
 15 16  1  0
 16 17  1  0
 17 18  1  0
 18 19  1  1
 10 20  1  0
 20 21  1  0
 21 22  2  0
 21 23  1  0
 23 24  1  0
 24 25  1  0
 25 26  1  0
 25 27  2  0
  1 28  1  0
 28 29  1  0
 28 30  2  0
 18  1  1  0
 18  4  1  0
 15  5  1  0
 13  8  1  0
  1 31  1  6
  2 32  1  0
  2 33  1  0
  3 34  1  0
  3 35  1  0
  4 36  1  6
  5 37  1  1
  6 38  1  0
  6 39  1  0
  7 40  1  0
  7 41  1  0
  8 42  1  6
  9 43  1  0
  9 44  1  0
 10 45  1  6
 11 46  1  0
 11 47  1  0
 12 48  1  0
 12 49  1  0
 14 50  1  0
 14 51  1  0
 14 52  1  0
 15 53  1  6
 16 54  1  0
 16 55  1  0
 17 56  1  0
 17 57  1  0
 19 58  1  0
 19 59  1  0
 19 60  1  0
 23 61  1  0
 23 62  1  0
 24 63  1  0
 24 64  1  0
 26 65  1  0
 29 66  1  0
 29 67  1  0
 29 68  1  0
M  END
$$$$
