
     RDKit          3D

 28 28  0  0  0  0  0  0  0  0999 V2000
    3.0853    1.0375    0.6848 N   0  0  0  0  0  0  0  0  0  0  0  0
    2.6803    0.2060   -0.4047 C   0  0  0  0  0  0  0  0  0  0  0  0
    3.5572   -0.2483   -1.1886 O   0  0  0  0  0  0  0  0  0  0  0  0
    1.2193   -0.1538   -0.5922 C   0  0  2  0  0  0  0  0  0  0  0  0
    1.0118   -0.6632   -1.8955 O   0  0  0  0  0  0  0  0  0  0  0  0
    0.4705    1.0450   -0.4333 O   0  0  0  0  0  0  0  0  0  0  0  0
   -0.9270    0.8342   -0.5862 C   0  0  2  0  0  0  0  0  0  0  0  0
   -1.6301    2.1998   -0.5476 C   0  0  0  0  0  0  0  0  0  0  0  0
   -1.3419    2.8807    0.6455 O   0  0  0  0  0  0  0  0  0  0  0  0
   -1.4705   -0.1149    0.5071 C   0  0  1  0  0  0  0  0  0  0  0  0
   -2.8417   -0.3388    0.2960 O   0  0  0  0  0  0  0  0  0  0  0  0
   -0.7122   -1.4519    0.4508 C   0  0  2  0  0  0  0  0  0  0  0  0
   -1.0727   -2.2582    1.5431 O   0  0  0  0  0  0  0  0  0  0  0  0
    0.8034   -1.1824    0.5011 C   0  0  1  0  0  0  0  0  0  0  0  0
    1.5504   -2.3739    0.4116 O   0  0  0  0  0  0  0  0  0  0  0  0
    2.3856    1.4146    1.3619 H   0  0  0  0  0  0  0  0  0  0  0  0
    4.0932    1.2752    0.8185 H   0  0  0  0  0  0  0  0  0  0  0  0
    1.5580   -1.4829   -2.0107 H   0  0  0  0  0  0  0  0  0  0  0  0
   -1.1487    0.3989   -1.5878 H   0  0  0  0  0  0  0  0  0  0  0  0
   -2.7296    2.0822   -0.6897 H   0  0  0  0  0  0  0  0  0  0  0  0
   -1.2598    2.8138   -1.3962 H   0  0  0  0  0  0  0  0  0  0  0  0
   -2.0664    2.6594    1.2868 H   0  0  0  0  0  0  0  0  0  0  0  0
   -1.3026    0.3528    1.5069 H   0  0  0  0  0  0  0  0  0  0  0  0
   -3.2360   -0.5731    1.1765 H   0  0  0  0  0  0  0  0  0  0  0  0
   -0.9575   -1.9708   -0.5073 H   0  0  0  0  0  0  0  0  0  0  0  0
   -1.9129   -2.7246    1.2937 H   0  0  0  0  0  0  0  0  0  0  0  0
    1.0243   -0.7335    1.4958 H   0  0  0  0  0  0  0  0  0  0  0  0
    1.1702   -2.9295   -0.3171 H   0  0  0  0  0  0  0  0  0  0  0  0
  1  2  1  0
  2  3  2  0
  2  4  1  0
  4  5  1  6
  4  6  1  0
  6  7  1  0
  7  8  1  0
  8  9  1  0
  7 10  1  0
 10 11  1  0
 10 12  1  0
 12 13  1  0
 12 14  1  0
 14 15  1  0
 14  4  1  0
  1 16  1  0
  1 17  1  0
  5 18  1  0
  7 19  1  6
  8 20  1  0
  8 21  1  0
  9 22  1  0
 10 23  1  1
 11 24  1  0
 12 25  1  6
 13 26  1  0
 14 27  1  1
 15 28  1  0
M  END
$$$$
