
     RDKit          3D

 24 24  0  0  0  0  0  0  0  0999 V2000
    3.2711   -0.4850    0.0418 O   0  0  0  0  0  0  0  0  0  0  0  0
    2.2699    0.4838    0.1931 C   0  0  0  0  0  0  0  0  0  0  0  0
    1.0208    0.0777   -0.6164 C   0  0  1  0  0  0  0  0  0  0  0  0
    0.6141   -1.3036   -0.2706 N   0  0  0  0  0  0  0  0  0  0  0  0
   -0.7771   -1.5836   -0.6385 C   0  0  0  0  0  0  0  0  0  0  0  0
   -1.7591   -0.7670    0.2288 C   0  0  2  0  0  0  0  0  0  0  0  0
   -3.0115   -0.7206   -0.4064 O   0  0  0  0  0  0  0  0  0  0  0  0
   -1.2537    0.6816    0.4871 C   0  0  1  0  0  0  0  0  0  0  0  0
   -0.8334    0.8592    1.8188 O   0  0  0  0  0  0  0  0  0  0  0  0
   -0.1511    1.1116   -0.5086 C   0  0  1  0  0  0  0  0  0  0  0  0
    0.3248    2.3954   -0.1874 O   0  0  0  0  0  0  0  0  0  0  0  0
    4.0381   -0.1777    0.5917 H   0  0  0  0  0  0  0  0  0  0  0  0
    2.6556    1.4596   -0.1784 H   0  0  0  0  0  0  0  0  0  0  0  0
    2.0124    0.5906    1.2694 H   0  0  0  0  0  0  0  0  0  0  0  0
    1.3419    0.0673   -1.6824 H   0  0  0  0  0  0  0  0  0  0  0  0
    0.7329   -1.4868    0.7533 H   0  0  0  0  0  0  0  0  0  0  0  0
   -0.9309   -1.3585   -1.7179 H   0  0  0  0  0  0  0  0  0  0  0  0
   -0.9790   -2.6677   -0.5000 H   0  0  0  0  0  0  0  0  0  0  0  0
   -1.8738   -1.2830    1.2115 H   0  0  0  0  0  0  0  0  0  0  0  0
   -3.4118   -1.6255   -0.3209 H   0  0  0  0  0  0  0  0  0  0  0  0
   -2.1099    1.3771    0.3397 H   0  0  0  0  0  0  0  0  0  0  0  0
   -0.1665    0.1590    2.0308 H   0  0  0  0  0  0  0  0  0  0  0  0
   -0.6295    1.1573   -1.5168 H   0  0  0  0  0  0  0  0  0  0  0  0
   -0.3944    3.0389   -0.4216 H   0  0  0  0  0  0  0  0  0  0  0  0
  1  2  1  0
  2  3  1  0
  3  4  1  0
  4  5  1  0
  5  6  1  0
  6  7  1  0
  6  8  1  0
  8  9  1  0
  8 10  1  0
 10 11  1  0
 10  3  1  0
  1 12  1  0
  2 13  1  0
  2 14  1  0
  3 15  1  6
  4 16  1  0
  5 17  1  0
  5 18  1  0
  6 19  1  1
  7 20  1  0
  8 21  1  6
  9 22  1  0
 10 23  1  6
 11 24  1  0
M  END
$$$$
