
     RDKit          3D

 22 22  0  0  0  0  0  0  0  0999 V2000
    3.0304    1.1906    1.0988 O   0  0  0  0  0  0  0  0  0  0  0  0
    2.4301    0.2712    0.2289 C   0  0  0  0  0  0  0  0  0  0  0  0
    0.9234    0.2129    0.5000 C   0  0  1  0  0  0  0  0  0  0  0  0
    0.3735    1.5236    0.3545 O   0  0  0  0  0  0  0  0  0  0  0  0
   -0.9733    1.7648    0.0677 C   0  0  0  0  0  0  0  0  0  0  0  0
   -1.4261    2.9330    0.1966 O   0  0  0  0  0  0  0  0  0  0  0  0
   -1.8463    0.6890   -0.5193 C   0  0  2  0  0  0  0  0  0  0  0  0
   -3.1513    0.8251   -0.0188 O   0  0  0  0  0  0  0  0  0  0  0  0
   -1.3057   -0.7165   -0.1959 C   0  0  1  0  0  0  0  0  0  0  0  0
   -1.9622   -1.6542   -1.0110 O   0  0  0  0  0  0  0  0  0  0  0  0
    0.2138   -0.7889   -0.4357 C   0  0  2  0  0  0  0  0  0  0  0  0
    0.6597   -2.0944   -0.1636 O   0  0  0  0  0  0  0  0  0  0  0  0
    3.9964    1.1951    0.8709 H   0  0  0  0  0  0  0  0  0  0  0  0
    2.8818   -0.7329    0.3898 H   0  0  0  0  0  0  0  0  0  0  0  0
    2.6074    0.5828   -0.8252 H   0  0  0  0  0  0  0  0  0  0  0  0
    0.7690   -0.1139    1.5529 H   0  0  0  0  0  0  0  0  0  0  0  0
   -1.8463    0.8368   -1.6248 H   0  0  0  0  0  0  0  0  0  0  0  0
   -3.7523    0.3469   -0.6481 H   0  0  0  0  0  0  0  0  0  0  0  0
   -1.5166   -0.9356    0.8794 H   0  0  0  0  0  0  0  0  0  0  0  0
   -1.9207   -2.5279   -0.5413 H   0  0  0  0  0  0  0  0  0  0  0  0
    0.4166   -0.5175   -1.5007 H   0  0  0  0  0  0  0  0  0  0  0  0
    1.3985   -2.2899   -0.7972 H   0  0  0  0  0  0  0  0  0  0  0  0
  1  2  1  0
  2  3  1  0
  3  4  1  0
  4  5  1  0
  5  6  2  0
  5  7  1  0
  7  8  1  0
  7  9  1  0
  9 10  1  0
  9 11  1  0
 11 12  1  0
 11  3  1  0
  1 13  1  0
  2 14  1  0
  2 15  1  0
  3 16  1  1
  7 17  1  6
  8 18  1  0
  9 19  1  1
 10 20  1  0
 11 21  1  6
 12 22  1  0
M  END
$$$$
