
     RDKit          3D

 54 58  0  0  0  0  0  0  0  0999 V2000
    1.4557   -2.7778   -3.0140 N   0  0  0  0  0  0  0  0  0  0  0  0
    2.4407   -1.8205   -2.6574 C   0  0  0  0  0  0  0  0  0  0  0  0
    3.4508   -1.5996   -3.3744 O   0  0  0  0  0  0  0  0  0  0  0  0
    2.0865   -1.1138   -1.4062 C   0  0  0  0  0  0  0  0  0  0  0  0
    0.7857   -1.7401   -1.0339 C   0  0  0  0  0  0  0  0  0  0  0  0
    0.4716   -2.6868   -1.9998 C   0  0  0  0  0  0  0  0  0  0  0  0
   -0.6898   -3.4534   -1.9370 C   0  0  0  0  0  0  0  0  0  0  0  0
   -1.5603   -3.2625   -0.8580 C   0  0  0  0  0  0  0  0  0  0  0  0
   -1.2539   -2.3229    0.1457 C   0  0  0  0  0  0  0  0  0  0  0  0
   -0.0707   -1.5645    0.0644 C   0  0  0  0  0  0  0  0  0  0  0  0
   -2.3621   -2.0791    1.4977 S   0  0  0  0  0  6  0  0  0  0  0  0
   -3.1210   -3.3515    1.7550 O   0  0  0  0  0  0  0  0  0  0  0  0
   -1.5697   -1.7540    2.7336 O   0  0  0  0  0  0  0  0  0  0  0  0
   -3.4898   -0.7856    1.1728 N   0  0  0  0  0  0  0  0  0  0  0  0
   -2.7574    0.4754    0.9572 C   0  0  0  0  0  0  0  0  0  0  0  0
   -3.7437    1.6320    0.7673 C   0  0  0  0  0  0  0  0  0  0  0  0
   -4.6863    1.3403   -0.4129 C   0  0  0  0  0  0  0  0  0  0  0  0
   -5.6480    2.3562   -0.5477 O   0  0  0  0  0  0  0  0  0  0  0  0
   -5.3601   -0.0326   -0.2458 C   0  0  0  0  0  0  0  0  0  0  0  0
   -4.3059   -1.1197   -0.0083 C   0  0  0  0  0  0  0  0  0  0  0  0
    2.8028   -0.1203   -0.8157 C   0  0  0  0  0  0  0  0  0  0  0  0
    4.1069    0.2714   -1.2723 N   0  0  0  0  0  0  0  0  0  0  0  0
    4.5584    1.2812   -0.3939 C   0  0  0  0  0  0  0  0  0  0  0  0
    5.7988    1.9180   -0.4356 C   0  0  0  0  0  0  0  0  0  0  0  0
    6.0842    2.8845    0.5425 C   0  0  0  0  0  0  0  0  0  0  0  0
    5.1352    3.1877    1.5386 C   0  0  0  0  0  0  0  0  0  0  0  0
    3.8962    2.5260    1.5612 C   0  0  0  0  0  0  0  0  0  0  0  0
    3.6307    1.5720    0.5743 C   0  0  0  0  0  0  0  0  0  0  0  0
    2.4005    0.7273    0.3926 C   0  0  1  0  0  0  0  0  0  0  0  0
    1.2007    1.6389    0.0853 C   0  0  0  0  0  0  0  0  0  0  0  0
    2.1835   -0.0461    1.5469 O   0  0  0  0  0  0  0  0  0  0  0  0
    1.4495   -3.3997   -3.8528 H   0  0  0  0  0  0  0  0  0  0  0  0
   -0.9155   -4.1811   -2.7057 H   0  0  0  0  0  0  0  0  0  0  0  0
   -2.4717   -3.8439   -0.8042 H   0  0  0  0  0  0  0  0  0  0  0  0
    0.1323   -0.8597    0.8448 H   0  0  0  0  0  0  0  0  0  0  0  0
   -2.0979    0.4064    0.0637 H   0  0  0  0  0  0  0  0  0  0  0  0
   -2.1229    0.7015    1.8416 H   0  0  0  0  0  0  0  0  0  0  0  0
   -3.1806    2.5701    0.5714 H   0  0  0  0  0  0  0  0  0  0  0  0
   -4.3315    1.7663    1.7021 H   0  0  0  0  0  0  0  0  0  0  0  0
   -4.0817    1.3216   -1.3468 H   0  0  0  0  0  0  0  0  0  0  0  0
   -6.1876    2.3737    0.2859 H   0  0  0  0  0  0  0  0  0  0  0  0
   -5.9425   -0.2754   -1.1608 H   0  0  0  0  0  0  0  0  0  0  0  0
   -6.0607   -0.0112    0.6179 H   0  0  0  0  0  0  0  0  0  0  0  0
   -4.8350   -2.0829    0.1586 H   0  0  0  0  0  0  0  0  0  0  0  0
   -3.6705   -1.2255   -0.9165 H   0  0  0  0  0  0  0  0  0  0  0  0
    4.7038   -0.1754   -1.9996 H   0  0  0  0  0  0  0  0  0  0  0  0
    6.5240    1.6731   -1.2007 H   0  0  0  0  0  0  0  0  0  0  0  0
    7.0381    3.3955    0.5330 H   0  0  0  0  0  0  0  0  0  0  0  0
    5.3626    3.9312    2.2914 H   0  0  0  0  0  0  0  0  0  0  0  0
    3.1651    2.7497    2.3271 H   0  0  0  0  0  0  0  0  0  0  0  0
    0.8811    2.1732    1.0052 H   0  0  0  0  0  0  0  0  0  0  0  0
    0.3378    1.0714   -0.3096 H   0  0  0  0  0  0  0  0  0  0  0  0
    1.4714    2.3935   -0.6854 H   0  0  0  0  0  0  0  0  0  0  0  0
    2.9625   -0.6526    1.6615 H   0  0  0  0  0  0  0  0  0  0  0  0
  1  2  1  0
  2  3  2  0
  2  4  1  0
  4  5  1  0
  5  6  2  0
  6  7  1  0
  7  8  2  0
  8  9  1  0
  9 10  2  0
  9 11  1  0
 11 12  2  0
 11 13  2  0
 11 14  1  0
 14 15  1  0
 15 16  1  0
 16 17  1  0
 17 18  1  0
 17 19  1  0
 19 20  1  0
  4 21  2  0
 21 22  1  0
 22 23  1  0
 23 24  2  0
 24 25  1  0
 25 26  2  0
 26 27  1  0
 27 28  2  0
 28 29  1  0
 29 30  1  0
 29 31  1  1
  6  1  1  0
 20 14  1  0
 29 21  1  0
 10  5  1  0
 28 23  1  0
  1 32  1  0
  7 33  1  0
  8 34  1  0
 10 35  1  0
 15 36  1  0
 15 37  1  0
 16 38  1  0
 16 39  1  0
 17 40  1  0
 18 41  1  0
 19 42  1  0
 19 43  1  0
 20 44  1  0
 20 45  1  0
 22 46  1  0
 24 47  1  0
 25 48  1  0
 26 49  1  0
 27 50  1  0
 30 51  1  0
 30 52  1  0
 30 53  1  0
 31 54  1  0
M  END
$$$$
