
     RDKit          3D

 36 39  0  0  0  0  0  0  0  0999 V2000
   -3.0611   -2.0874   -0.1580 O   0  0  0  0  0  0  0  0  0  0  0  0
   -2.4635   -0.9997   -0.3826 C   0  0  0  0  0  0  0  0  0  0  0  0
   -1.0581   -1.0025   -0.6895 N   0  0  0  0  0  0  0  0  0  0  0  0
   -0.2561   -2.1923   -0.7164 C   0  0  0  0  0  0  0  0  0  0  0  0
   -0.6424   -3.4437   -1.1523 C   0  0  0  0  0  0  0  0  0  0  0  0
    0.4556   -4.2184   -1.2141 N   0  0  0  0  0  0  0  0  0  0  0  0
    1.5227   -3.5210   -0.8547 N   0  0  0  0  0  0  0  0  0  0  0  0
    1.1165   -2.2734   -0.5455 C   0  0  0  0  0  0  0  0  0  0  0  0
    2.0356   -1.2163   -0.0930 C   0  0  0  0  0  0  0  0  0  0  0  0
    3.3748   -1.2693   -0.3250 N   0  0  0  0  0  0  0  0  0  0  0  0
    3.8263   -0.1540    0.2757 C   0  0  0  0  0  0  0  0  0  0  0  0
    2.7955    0.5260    0.8512 C   0  0  0  0  0  0  0  0  0  0  0  0
    1.6524   -0.1340    0.6326 N   0  0  0  0  0  0  0  0  0  0  0  0
    2.9899    1.7099    1.5593 C   0  0  0  0  0  0  0  0  0  0  0  0
    4.3064    2.1986    1.6590 C   0  0  0  0  0  0  0  0  0  0  0  0
    5.3778    1.4960    1.0598 C   0  0  0  0  0  0  0  0  0  0  0  0
    5.1411    0.2987    0.3570 C   0  0  0  0  0  0  0  0  0  0  0  0
   -3.2292    0.2683   -0.3201 C   0  0  0  0  0  0  0  0  0  0  0  0
   -4.6127    0.2656   -0.5788 C   0  0  0  0  0  0  0  0  0  0  0  0
   -5.3480    1.4533   -0.5175 C   0  0  0  0  0  0  0  0  0  0  0  0
   -4.7143    2.6535   -0.1893 C   0  0  0  0  0  0  0  0  0  0  0  0
   -3.3448    2.6674    0.0835 C   0  0  0  0  0  0  0  0  0  0  0  0
   -2.6039    1.4828    0.0227 C   0  0  0  0  0  0  0  0  0  0  0  0
   -0.5893   -0.1050   -0.9398 H   0  0  0  0  0  0  0  0  0  0  0  0
   -1.6300   -3.7583   -1.4613 H   0  0  0  0  0  0  0  0  0  0  0  0
    0.4845   -5.2147   -1.5240 H   0  0  0  0  0  0  0  0  0  0  0  0
    0.7026    0.1121    0.9886 H   0  0  0  0  0  0  0  0  0  0  0  0
    2.1607    2.2350    2.0154 H   0  0  0  0  0  0  0  0  0  0  0  0
    4.4997    3.1163    2.1989 H   0  0  0  0  0  0  0  0  0  0  0  0
    6.3864    1.8794    1.1439 H   0  0  0  0  0  0  0  0  0  0  0  0
    5.9532   -0.2508   -0.1013 H   0  0  0  0  0  0  0  0  0  0  0  0
   -5.1233   -0.6533   -0.8398 H   0  0  0  0  0  0  0  0  0  0  0  0
   -6.4103    1.4427   -0.7248 H   0  0  0  0  0  0  0  0  0  0  0  0
   -5.2853    3.5716   -0.1407 H   0  0  0  0  0  0  0  0  0  0  0  0
   -2.8572    3.5964    0.3499 H   0  0  0  0  0  0  0  0  0  0  0  0
   -1.5519    1.5204    0.2712 H   0  0  0  0  0  0  0  0  0  0  0  0
  1  2  2  0
  2  3  1  0
  3  4  1  0
  4  5  2  0
  5  6  1  0
  6  7  1  0
  7  8  2  0
  8  9  1  0
  9 10  2  0
 10 11  1  0
 11 12  2  0
 12 13  1  0
 12 14  1  0
 14 15  2  0
 15 16  1  0
 16 17  2  0
  2 18  1  0
 18 19  2  0
 19 20  1  0
 20 21  2  0
 21 22  1  0
 22 23  2  0
  8  4  1  0
 13  9  1  0
 23 18  1  0
 17 11  1  0
  3 24  1  0
  5 25  1  0
  6 26  1  0
 13 27  1  0
 14 28  1  0
 15 29  1  0
 16 30  1  0
 17 31  1  0
 19 32  1  0
 20 33  1  0
 21 34  1  0
 22 35  1  0
 23 36  1  0
M  END
$$$$
