
     RDKit          3D

 71 73  0  0  0  0  0  0  0  0999 V2000
   -0.2994    3.8902    0.8050 C   0  0  0  0  0  0  0  0  0  0  0  0
    0.9505    3.3052    0.1463 C   0  0  2  0  0  0  0  0  0  0  0  0
    0.9926    1.9097    0.4178 O   0  0  0  0  0  0  0  0  0  0  0  0
    2.2879    1.3150    0.3435 C   0  0  1  0  0  0  0  0  0  0  0  0
    2.1542   -0.0253   -0.0932 O   0  0  0  0  0  0  0  0  0  0  0  0
    1.6231   -0.8673    0.9216 C   0  0  2  0  0  0  0  0  0  0  0  0
    2.5987   -2.0401    1.1428 C   0  0  1  0  0  0  0  0  0  0  0  0
    3.7879   -1.5793    1.7316 O   0  0  0  0  0  0  0  0  0  0  0  0
    1.9600   -3.1158    2.0389 C   0  0  1  0  0  0  0  0  0  0  0  0
    1.8130   -2.6311    3.3515 O   0  0  0  0  0  0  0  0  0  0  0  0
    0.5771   -3.4910    1.4625 C   0  0  1  0  0  0  0  0  0  0  0  0
   -0.1218   -4.5592    2.3121 C   0  0  0  0  0  0  0  0  0  0  0  0
    0.6300   -5.7416    2.3184 O   0  0  0  0  0  0  0  0  0  0  0  0
   -0.2504   -2.3430    1.4095 O   0  0  0  0  0  0  0  0  0  0  0  0
    0.2510   -1.4070    0.4665 C   0  0  1  0  0  0  0  0  0  0  0  0
   -0.6450   -0.3162    0.3855 O   0  0  0  0  0  0  0  0  0  0  0  0
   -1.8505   -0.6689   -0.2744 C   0  0  1  0  0  0  0  0  0  0  0  0
   -3.0374   -0.2824    0.6276 C   0  0  2  0  0  0  0  0  0  0  0  0
   -3.0456   -1.0681    1.7946 O   0  0  0  0  0  0  0  0  0  0  0  0
   -4.3684   -0.4167   -0.1536 C   0  0  1  0  0  0  0  0  0  0  0  0
   -5.5542    0.0283    0.7147 C   0  0  0  0  0  0  0  0  0  0  0  0
   -6.7533   -0.0732   -0.0049 O   0  0  0  0  0  0  0  0  0  0  0  0
   -4.3343    0.3932   -1.3173 O   0  0  0  0  0  0  0  0  0  0  0  0
   -3.3442   -0.0658   -2.2203 C   0  0  1  0  0  0  0  0  0  0  0  0
   -3.4360    0.7019   -3.3917 O   0  0  0  0  0  0  0  0  0  0  0  0
   -1.9395    0.1042   -1.6022 C   0  0  2  0  0  0  0  0  0  0  0  0
   -0.9182   -0.3897   -2.5308 N   0  0  0  0  0  0  0  0  0  0  0  0
   -0.0158    0.4743   -3.2343 C   0  0  0  0  0  0  0  0  0  0  0  0
    1.0018   -0.1115   -4.1569 C   0  0  0  0  0  0  0  0  0  0  0  0
   -0.0802    1.7251   -3.0907 O   0  0  0  0  0  0  0  0  0  0  0  0
    3.2638    2.0454   -0.6083 C   0  0  1  0  0  0  0  0  0  0  0  0
    2.7770    1.9976   -1.9264 O   0  0  0  0  0  0  0  0  0  0  0  0
    3.4478    3.5233   -0.1784 C   0  0  2  0  0  0  0  0  0  0  0  0
    4.6097    3.6637    0.6011 O   0  0  0  0  0  0  0  0  0  0  0  0
    2.2216    4.0561    0.6028 C   0  0  2  0  0  0  0  0  0  0  0  0
    2.3935    3.8812    1.9890 O   0  0  0  0  0  0  0  0  0  0  0  0
   -0.2612    3.7526    1.9065 H   0  0  0  0  0  0  0  0  0  0  0  0
   -1.2032    3.3732    0.4169 H   0  0  0  0  0  0  0  0  0  0  0  0
   -0.3887    4.9733    0.5748 H   0  0  0  0  0  0  0  0  0  0  0  0
    0.8270    3.4488   -0.9504 H   0  0  0  0  0  0  0  0  0  0  0  0
    2.7600    1.3458    1.3544 H   0  0  0  0  0  0  0  0  0  0  0  0
    1.4710   -0.3556    1.9042 H   0  0  0  0  0  0  0  0  0  0  0  0
    2.8305   -2.5110    0.1570 H   0  0  0  0  0  0  0  0  0  0  0  0
    4.3151   -1.1414    1.0132 H   0  0  0  0  0  0  0  0  0  0  0  0
    2.6126   -4.0210    2.0324 H   0  0  0  0  0  0  0  0  0  0  0  0
    2.6799   -2.7764    3.8129 H   0  0  0  0  0  0  0  0  0  0  0  0
    0.7052   -3.9263    0.4426 H   0  0  0  0  0  0  0  0  0  0  0  0
   -0.2631   -4.1915    3.3532 H   0  0  0  0  0  0  0  0  0  0  0  0
   -1.1256   -4.7639    1.8764 H   0  0  0  0  0  0  0  0  0  0  0  0
    0.1283   -6.3837    2.8849 H   0  0  0  0  0  0  0  0  0  0  0  0
    0.3754   -1.8760   -0.5410 H   0  0  0  0  0  0  0  0  0  0  0  0
   -1.9379   -1.7620   -0.4991 H   0  0  0  0  0  0  0  0  0  0  0  0
   -2.9135    0.7814    0.9320 H   0  0  0  0  0  0  0  0  0  0  0  0
   -3.1872   -2.0124    1.5215 H   0  0  0  0  0  0  0  0  0  0  0  0
   -4.5378   -1.4850   -0.4272 H   0  0  0  0  0  0  0  0  0  0  0  0
   -5.4159    1.0878    1.0198 H   0  0  0  0  0  0  0  0  0  0  0  0
   -5.6145   -0.5876    1.6409 H   0  0  0  0  0  0  0  0  0  0  0  0
   -6.9831   -1.0386   -0.0398 H   0  0  0  0  0  0  0  0  0  0  0  0
   -3.5260   -1.1405   -2.4729 H   0  0  0  0  0  0  0  0  0  0  0  0
   -3.0243    0.1710   -4.1229 H   0  0  0  0  0  0  0  0  0  0  0  0
   -1.7798    1.1850   -1.3865 H   0  0  0  0  0  0  0  0  0  0  0  0
   -0.8915   -1.4131   -2.7437 H   0  0  0  0  0  0  0  0  0  0  0  0
    1.6406   -0.8264   -3.5973 H   0  0  0  0  0  0  0  0  0  0  0  0
    0.4888   -0.6476   -4.9821 H   0  0  0  0  0  0  0  0  0  0  0  0
    1.6448    0.6850   -4.5882 H   0  0  0  0  0  0  0  0  0  0  0  0
    4.2543    1.5316   -0.5637 H   0  0  0  0  0  0  0  0  0  0  0  0
    3.0401    1.1171   -2.3018 H   0  0  0  0  0  0  0  0  0  0  0  0
    3.5562    4.1488   -1.0971 H   0  0  0  0  0  0  0  0  0  0  0  0
    5.3822    3.6271   -0.0219 H   0  0  0  0  0  0  0  0  0  0  0  0
    2.0962    5.1414    0.3709 H   0  0  0  0  0  0  0  0  0  0  0  0
    2.8983    4.6691    2.3211 H   0  0  0  0  0  0  0  0  0  0  0  0
  1  2  1  0
  2  3  1  0
  3  4  1  0
  4  5  1  0
  5  6  1  0
  6  7  1  0
  7  8  1  0
  7  9  1  0
  9 10  1  0
  9 11  1  0
 11 12  1  0
 12 13  1  0
 11 14  1  0
 14 15  1  0
 15 16  1  0
 16 17  1  0
 17 18  1  0
 18 19  1  0
 18 20  1  0
 20 21  1  0
 21 22  1  0
 20 23  1  0
 23 24  1  0
 24 25  1  0
 24 26  1  0
 26 27  1  0
 27 28  1  0
 28 29  1  0
 28 30  2  0
  4 31  1  0
 31 32  1  0
 31 33  1  0
 33 34  1  0
 33 35  1  0
 35 36  1  0
 35  2  1  0
 15  6  1  0
 26 17  1  0
  1 37  1  0
  1 38  1  0
  1 39  1  0
  2 40  1  6
  4 41  1  1
  6 42  1  1
  7 43  1  6
  8 44  1  0
  9 45  1  1
 10 46  1  0
 11 47  1  6
 12 48  1  0
 12 49  1  0
 13 50  1  0
 15 51  1  6
 17 52  1  6
 18 53  1  1
 19 54  1  0
 20 55  1  6
 21 56  1  0
 21 57  1  0
 22 58  1  0
 24 59  1  6
 25 60  1  0
 26 61  1  1
 27 62  1  0
 29 63  1  0
 29 64  1  0
 29 65  1  0
 31 66  1  6
 32 67  1  0
 33 68  1  6
 34 69  1  0
 35 70  1  1
 36 71  1  0
M  END
$$$$
