
     RDKit          3D

 28 29  0  0  0  0  0  0  0  0999 V2000
   -2.1345   -1.7977    1.2402 C   0  0  0  0  0  0  0  0  0  0  0  0
   -1.6176   -0.3584    1.1060 C   0  0  0  0  0  0  0  0  0  0  0  0
   -2.5911    0.4810    0.3876 N   0  0  0  0  0  0  0  0  0  0  0  0
   -3.1756    1.4932    1.0766 O   0  0  0  0  0  0  0  0  0  0  0  0
   -3.0266    0.2530   -0.9704 C   0  0  0  0  0  0  0  0  0  0  0  0
   -2.3518   -0.6521   -1.8501 N   0  0  0  0  0  0  0  0  0  0  0  0
   -4.0270    0.8836   -1.4057 O   0  0  0  0  0  0  0  0  0  0  0  0
   -0.2425   -0.2651    0.4895 C   0  0  0  0  0  0  0  0  0  0  0  0
    0.3147    0.8949   -0.0579 C   0  0  0  0  0  0  0  0  0  0  0  0
    1.6386    0.7135   -0.4710 C   0  0  0  0  0  0  0  0  0  0  0  0
    2.4570    1.6789   -1.0637 C   0  0  0  0  0  0  0  0  0  0  0  0
    3.7730    1.3291   -1.4117 C   0  0  0  0  0  0  0  0  0  0  0  0
    4.2555    0.0290   -1.1631 C   0  0  0  0  0  0  0  0  0  0  0  0
    3.4264   -0.9323   -0.5642 C   0  0  0  0  0  0  0  0  0  0  0  0
    2.1257   -0.5622   -0.2314 C   0  0  0  0  0  0  0  0  0  0  0  0
    0.9332   -1.4894    0.4973 S   0  0  0  0  0  0  0  0  0  0  0  0
   -2.1476   -2.3241    0.2651 H   0  0  0  0  0  0  0  0  0  0  0  0
   -3.1662   -1.7886    1.6517 H   0  0  0  0  0  0  0  0  0  0  0  0
   -1.4920   -2.3704    1.9424 H   0  0  0  0  0  0  0  0  0  0  0  0
   -1.5160    0.0346    2.1419 H   0  0  0  0  0  0  0  0  0  0  0  0
   -2.5951    2.2810    0.9166 H   0  0  0  0  0  0  0  0  0  0  0  0
   -2.7234   -0.8059   -2.8137 H   0  0  0  0  0  0  0  0  0  0  0  0
   -1.4695   -1.1405   -1.5937 H   0  0  0  0  0  0  0  0  0  0  0  0
   -0.2164    1.8338   -0.1479 H   0  0  0  0  0  0  0  0  0  0  0  0
    2.0882    2.6792   -1.2533 H   0  0  0  0  0  0  0  0  0  0  0  0
    4.4203    2.0639   -1.8726 H   0  0  0  0  0  0  0  0  0  0  0  0
    5.2710   -0.2295   -1.4336 H   0  0  0  0  0  0  0  0  0  0  0  0
    3.7894   -1.9325   -0.3664 H   0  0  0  0  0  0  0  0  0  0  0  0
  1  2  1  0
  2  3  1  0
  3  4  1  0
  3  5  1  0
  5  6  1  0
  5  7  2  0
  2  8  1  0
  8  9  2  0
  9 10  1  0
 10 11  2  0
 11 12  1  0
 12 13  2  0
 13 14  1  0
 14 15  2  0
 15 16  1  0
 16  8  1  0
 15 10  1  0
  1 17  1  0
  1 18  1  0
  1 19  1  0
  2 20  1  0
  4 21  1  0
  6 22  1  0
  6 23  1  0
  9 24  1  0
 11 25  1  0
 12 26  1  0
 13 27  1  0
 14 28  1  0
M  END
$$$$
