
     RDKit          3D

 23 22  0  0  0  0  0  0  0  0999 V2000
    3.0835    1.0254   -0.5131 C   0  0  0  0  0  0  0  0  0  0  0  0
    4.0239    0.3049   -0.2177 O   0  0  0  0  0  0  0  0  0  0  0  0
    1.7738    0.4293   -0.9447 C   0  0  2  0  0  0  0  0  0  0  0  0
    0.9445    1.4442   -1.3818 F   0  0  0  0  0  0  0  0  0  0  0  0
    1.1177   -0.3723    0.2052 C   0  0  1  0  0  0  0  0  0  0  0  0
    0.9693    0.4510    1.3354 O   0  0  0  0  0  0  0  0  0  0  0  0
   -0.2320   -1.0708   -0.1759 C   0  0  2  0  0  0  0  0  0  0  0  0
   -0.3280   -1.2921   -1.5616 O   0  0  0  0  0  0  0  0  0  0  0  0
   -1.5274   -0.3783    0.3327 C   0  0  2  0  0  0  0  0  0  0  0  0
   -2.6335   -1.1864    0.0166 O   0  0  0  0  0  0  0  0  0  0  0  0
   -1.7506    1.0186   -0.2666 C   0  0  0  0  0  0  0  0  0  0  0  0
   -2.9849    1.5376    0.1525 O   0  0  0  0  0  0  0  0  0  0  0  0
    3.2049    2.1032   -0.4741 H   0  0  0  0  0  0  0  0  0  0  0  0
    1.9780   -0.2436   -1.8049 H   0  0  0  0  0  0  0  0  0  0  0  0
    1.8410   -1.1875    0.4510 H   0  0  0  0  0  0  0  0  0  0  0  0
    0.9145   -0.1500    2.1240 H   0  0  0  0  0  0  0  0  0  0  0  0
   -0.2208   -2.0632    0.3366 H   0  0  0  0  0  0  0  0  0  0  0  0
    0.2761   -2.0508   -1.7757 H   0  0  0  0  0  0  0  0  0  0  0  0
   -1.4716   -0.2635    1.4406 H   0  0  0  0  0  0  0  0  0  0  0  0
   -2.6427   -1.9349    0.6692 H   0  0  0  0  0  0  0  0  0  0  0  0
   -0.9625    1.7080    0.0959 H   0  0  0  0  0  0  0  0  0  0  0  0
   -1.7009    0.9831   -1.3794 H   0  0  0  0  0  0  0  0  0  0  0  0
   -3.6722    1.1885   -0.4731 H   0  0  0  0  0  0  0  0  0  0  0  0
  1  2  2  0
  1  3  1  0
  3  4  1  0
  3  5  1  0
  5  6  1  0
  5  7  1  0
  7  8  1  0
  7  9  1  0
  9 10  1  0
  9 11  1  0
 11 12  1  0
  1 13  1  0
  3 14  1  6
  5 15  1  1
  6 16  1  0
  7 17  1  1
  8 18  1  0
  9 19  1  1
 10 20  1  0
 11 21  1  0
 11 22  1  0
 12 23  1  0
M  ISO  1   4  18
M  END
$$$$
