
     RDKit          3D

 54 56  0  0  0  0  0  0  0  0999 V2000
   -3.5763   -1.1200    0.6642 C   0  0  1  0  0  0  0  0  0  0  0  0
   -4.6867   -1.9688    0.2224 N   0  0  0  0  0  0  0  0  0  0  0  0
   -2.6030   -0.8357   -0.5067 C   0  0  0  0  0  0  0  0  0  0  0  0
   -1.2705   -0.3192   -0.0290 C   0  0  0  0  0  0  0  0  0  0  0  0
   -1.1480    0.9126    0.2084 O   0  0  0  0  0  0  0  0  0  0  0  0
   -0.1461   -1.2011    0.1726 N   0  0  0  0  0  0  0  0  0  0  0  0
   -0.2627   -2.6495    0.2478 C   0  0  0  0  0  0  0  0  0  0  0  0
    1.0046   -3.1308    0.9363 C   0  0  0  0  0  0  0  0  0  0  0  0
    2.0149   -2.0004    0.7835 C   0  0  0  0  0  0  0  0  0  0  0  0
    1.1932   -0.7317    0.5159 C   0  0  1  0  0  0  0  0  0  0  0  0
    1.7974    0.1101   -0.6252 C   0  0  0  0  0  0  0  0  0  0  0  0
    3.1299    0.5903   -0.2561 N   0  0  0  0  0  0  0  0  0  0  0  0
    4.3329    0.1416   -0.9040 C   0  0  0  0  0  0  0  0  0  0  0  0
    4.2758   -0.7845   -1.7589 O   0  0  0  0  0  0  0  0  0  0  0  0
    5.6495    0.7352   -0.5683 C   0  0  0  0  0  0  0  0  0  0  0  0
    5.7508    2.0456   -0.0628 C   0  0  0  0  0  0  0  0  0  0  0  0
    7.0016    2.5912    0.2435 C   0  0  0  0  0  0  0  0  0  0  0  0
    8.1624    1.8410    0.0442 C   0  0  0  0  0  0  0  0  0  0  0  0
    8.0759    0.5447   -0.4675 C   0  0  0  0  0  0  0  0  0  0  0  0
    6.8282   -0.0057   -0.7765 C   0  0  0  0  0  0  0  0  0  0  0  0
   -4.1161    0.1577    1.3508 C   0  0  0  0  0  0  0  0  0  0  0  0
   -5.0063    1.0028    0.4660 C   0  0  0  0  0  0  0  0  0  0  0  0
   -6.3888    0.7448    0.3770 C   0  0  0  0  0  0  0  0  0  0  0  0
   -6.9539   -0.2594    1.0941 F   0  0  0  0  0  0  0  0  0  0  0  0
   -7.1988    1.5282   -0.4519 C   0  0  0  0  0  0  0  0  0  0  0  0
   -6.6431    2.5744   -1.1919 C   0  0  0  0  0  0  0  0  0  0  0  0
   -5.2758    2.8437   -1.1025 C   0  0  0  0  0  0  0  0  0  0  0  0
   -4.4606    2.0652   -0.2761 C   0  0  0  0  0  0  0  0  0  0  0  0
   -3.0196   -1.6816    1.4469 H   0  0  0  0  0  0  0  0  0  0  0  0
   -5.0832   -1.5897   -0.6685 H   0  0  0  0  0  0  0  0  0  0  0  0
   -4.3121   -2.9216    0.0072 H   0  0  0  0  0  0  0  0  0  0  0  0
   -3.0497   -0.1099   -1.2176 H   0  0  0  0  0  0  0  0  0  0  0  0
   -2.4410   -1.7671   -1.0890 H   0  0  0  0  0  0  0  0  0  0  0  0
   -1.1502   -2.9507    0.8425 H   0  0  0  0  0  0  0  0  0  0  0  0
   -0.3336   -3.0700   -0.7785 H   0  0  0  0  0  0  0  0  0  0  0  0
    1.3774   -4.0754    0.4839 H   0  0  0  0  0  0  0  0  0  0  0  0
    0.8005   -3.2994    2.0168 H   0  0  0  0  0  0  0  0  0  0  0  0
    2.6343   -1.8908    1.7003 H   0  0  0  0  0  0  0  0  0  0  0  0
    2.6848   -2.2414   -0.0707 H   0  0  0  0  0  0  0  0  0  0  0  0
    1.1363   -0.1217    1.4452 H   0  0  0  0  0  0  0  0  0  0  0  0
    1.8257   -0.4841   -1.5643 H   0  0  0  0  0  0  0  0  0  0  0  0
    1.1577    0.9944   -0.8224 H   0  0  0  0  0  0  0  0  0  0  0  0
    3.1953    1.2286    0.5677 H   0  0  0  0  0  0  0  0  0  0  0  0
    4.8723    2.6615    0.0741 H   0  0  0  0  0  0  0  0  0  0  0  0
    7.0710    3.6000    0.6296 H   0  0  0  0  0  0  0  0  0  0  0  0
    9.1291    2.2661    0.2814 H   0  0  0  0  0  0  0  0  0  0  0  0
    8.9764   -0.0348   -0.6250 H   0  0  0  0  0  0  0  0  0  0  0  0
    6.7843   -1.0147   -1.1676 H   0  0  0  0  0  0  0  0  0  0  0  0
   -3.2677    0.7687    1.7259 H   0  0  0  0  0  0  0  0  0  0  0  0
   -4.6844   -0.1424    2.2582 H   0  0  0  0  0  0  0  0  0  0  0  0
   -8.2599    1.3256   -0.5196 H   0  0  0  0  0  0  0  0  0  0  0  0
   -7.2729    3.1786   -1.8320 H   0  0  0  0  0  0  0  0  0  0  0  0
   -4.8470    3.6574   -1.6730 H   0  0  0  0  0  0  0  0  0  0  0  0
   -3.4044    2.2920   -0.2159 H   0  0  0  0  0  0  0  0  0  0  0  0
  1  2  1  0
  1  3  1  0
  3  4  1  0
  4  5  2  0
  4  6  1  0
  6  7  1  0
  7  8  1  0
  8  9  1  0
  9 10  1  0
 10 11  1  0
 11 12  1  0
 12 13  1  0
 13 14  2  0
 13 15  1  0
 15 16  2  0
 16 17  1  0
 17 18  2  0
 18 19  1  0
 19 20  2  0
  1 21  1  0
 21 22  1  0
 22 23  2  0
 23 24  1  0
 23 25  1  0
 25 26  2  0
 26 27  1  0
 27 28  2  0
 10  6  1  0
 20 15  1  0
 28 22  1  0
  1 29  1  1
  2 30  1  0
  2 31  1  0
  3 32  1  0
  3 33  1  0
  7 34  1  0
  7 35  1  0
  8 36  1  0
  8 37  1  0
  9 38  1  0
  9 39  1  0
 10 40  1  1
 11 41  1  0
 11 42  1  0
 12 43  1  0
 16 44  1  0
 17 45  1  0
 18 46  1  0
 19 47  1  0
 20 48  1  0
 21 49  1  0
 21 50  1  0
 25 51  1  0
 26 52  1  0
 27 53  1  0
 28 54  1  0
M  END
$$$$
