
     RDKit          3D

 46 47  0  0  0  0  0  0  0  0999 V2000
   -1.3899   -0.8900    0.1142 C   0  0  1  0  0  0  0  0  0  0  0  0
   -0.8154   -1.2197   -1.2319 N   0  0  0  0  0  0  0  0  0  0  0  0
   -0.8776   -0.2075   -2.3145 C   0  0  0  0  0  0  0  0  0  0  0  0
   -0.6892    1.2487   -1.8710 C   0  0  0  0  0  0  0  0  0  0  0  0
   -2.0240    1.9420   -1.6389 C   0  0  0  0  0  0  0  0  0  0  0  0
   -2.6315    1.6807    0.0506 S   0  0  0  0  0  0  0  0  0  0  0  0
   -2.8079   -0.1582    0.1496 C   0  0  0  0  0  0  0  0  0  0  0  0
   -3.4721   -0.3414    1.5435 C   0  0  0  0  0  0  0  0  0  0  0  0
   -3.8259   -0.6987   -0.8824 C   0  0  0  0  0  0  0  0  0  0  0  0
    0.8435   -1.8190   -1.1083 S   0  0  0  0  0  6  0  0  0  0  0  0
    0.9353   -2.9838   -0.1624 O   0  0  0  0  0  0  0  0  0  0  0  0
    1.3021   -2.3106   -2.4540 O   0  0  0  0  0  0  0  0  0  0  0  0
    1.9433   -0.5536   -0.5600 C   0  0  0  0  0  0  0  0  0  0  0  0
    2.5888    0.2727   -1.4896 C   0  0  0  0  0  0  0  0  0  0  0  0
    3.4425    1.2897   -1.0537 C   0  0  0  0  0  0  0  0  0  0  0  0
    3.6673    1.4927    0.3129 C   0  0  0  0  0  0  0  0  0  0  0  0
    4.5305    2.5283    0.7002 O   0  0  0  0  0  0  0  0  0  0  0  0
    4.8461    2.8483    2.0512 C   0  0  0  0  0  0  0  0  0  0  0  0
    3.0240    0.6566    1.2458 C   0  0  0  0  0  0  0  0  0  0  0  0
    2.1700   -0.3600    0.8087 C   0  0  0  0  0  0  0  0  0  0  0  0
   -1.4638   -2.1809    0.9122 C   0  0  0  0  0  0  0  0  0  0  0  0
   -2.0122   -3.1989    0.4086 O   0  0  0  0  0  0  0  0  0  0  0  0
   -0.9358   -2.2465    2.2410 N   0  0  0  0  0  0  0  0  0  0  0  0
   -0.9895   -3.4017    2.9458 O   0  0  0  0  0  0  0  0  0  0  0  0
   -0.6781   -0.2222    0.6445 H   0  0  0  0  0  0  0  0  0  0  0  0
   -1.7946   -0.3456   -2.9123 H   0  0  0  0  0  0  0  0  0  0  0  0
   -0.1019   -0.4118   -3.0831 H   0  0  0  0  0  0  0  0  0  0  0  0
   -0.1718    1.7922   -2.6925 H   0  0  0  0  0  0  0  0  0  0  0  0
   -0.0355    1.3369   -0.9796 H   0  0  0  0  0  0  0  0  0  0  0  0
   -1.8672    3.0362   -1.7476 H   0  0  0  0  0  0  0  0  0  0  0  0
   -2.7882    1.6642   -2.3929 H   0  0  0  0  0  0  0  0  0  0  0  0
   -4.3834    0.2895    1.6390 H   0  0  0  0  0  0  0  0  0  0  0  0
   -3.7962   -1.3907    1.7141 H   0  0  0  0  0  0  0  0  0  0  0  0
   -2.7716   -0.0458    2.3543 H   0  0  0  0  0  0  0  0  0  0  0  0
   -4.8506   -0.3377   -0.6469 H   0  0  0  0  0  0  0  0  0  0  0  0
   -3.8447   -1.8080   -0.8696 H   0  0  0  0  0  0  0  0  0  0  0  0
   -3.6349   -0.3678   -1.9104 H   0  0  0  0  0  0  0  0  0  0  0  0
    2.4229    0.1391   -2.5508 H   0  0  0  0  0  0  0  0  0  0  0  0
    3.9304    1.9256   -1.7815 H   0  0  0  0  0  0  0  0  0  0  0  0
    3.9243    3.1326    2.6015 H   0  0  0  0  0  0  0  0  0  0  0  0
    5.5479    3.7071    2.0660 H   0  0  0  0  0  0  0  0  0  0  0  0
    5.3342    1.9815    2.5448 H   0  0  0  0  0  0  0  0  0  0  0  0
    3.1762    0.7843    2.3087 H   0  0  0  0  0  0  0  0  0  0  0  0
    1.6836   -0.9930    1.5387 H   0  0  0  0  0  0  0  0  0  0  0  0
   -0.5270   -1.3967    2.6896 H   0  0  0  0  0  0  0  0  0  0  0  0
   -0.1325   -3.8591    2.7483 H   0  0  0  0  0  0  0  0  0  0  0  0
  1  2  1  0
  2  3  1  0
  3  4  1  0
  4  5  1  0
  5  6  1  0
  6  7  1  0
  7  8  1  0
  7  9  1  0
  2 10  1  0
 10 11  2  0
 10 12  2  0
 10 13  1  0
 13 14  2  0
 14 15  1  0
 15 16  2  0
 16 17  1  0
 17 18  1  0
 16 19  1  0
 19 20  2  0
  1 21  1  0
 21 22  2  0
 21 23  1  0
 23 24  1  0
  7  1  1  0
 20 13  1  0
  1 25  1  1
  3 26  1  0
  3 27  1  0
  4 28  1  0
  4 29  1  0
  5 30  1  0
  5 31  1  0
  8 32  1  0
  8 33  1  0
  8 34  1  0
  9 35  1  0
  9 36  1  0
  9 37  1  0
 14 38  1  0
 15 39  1  0
 18 40  1  0
 18 41  1  0
 18 42  1  0
 19 43  1  0
 20 44  1  0
 23 45  1  0
 24 46  1  0
M  END
$$$$
