
     RDKit          3D

 57 59  0  0  0  0  0  0  0  0999 V2000
    3.8340   -0.8991   -1.7775 C   0  0  0  0  0  0  0  0  0  0  0  0
    3.4634   -0.6316   -2.9512 O   0  0  0  0  0  0  0  0  0  0  0  0
    4.3631    0.1329   -0.9256 N   0  0  0  0  0  0  0  0  0  0  0  0
    3.6293    1.4243   -0.8504 C   0  0  0  0  0  0  0  0  0  0  0  0
    2.0895    1.2391   -0.8261 C   0  0  0  0  0  0  0  0  0  0  0  0
    1.6593    0.2983    0.2143 N   0  0  0  0  0  0  0  0  0  0  0  0
    0.2810   -0.0533    0.4391 C   0  0  0  0  0  0  0  0  0  0  0  0
   -0.7620    0.5071   -0.3214 C   0  0  0  0  0  0  0  0  0  0  0  0
   -2.0903    0.1438   -0.0801 C   0  0  0  0  0  0  0  0  0  0  0  0
   -2.4052   -0.7909    0.9217 C   0  0  0  0  0  0  0  0  0  0  0  0
   -1.3635   -1.3396    1.6884 C   0  0  0  0  0  0  0  0  0  0  0  0
   -0.0359   -0.9770    1.4461 C   0  0  0  0  0  0  0  0  0  0  0  0
   -3.8107   -1.1783    1.1910 C   0  0  0  0  0  0  0  0  0  0  0  0
   -4.1186   -1.6461    2.3217 O   0  0  0  0  0  0  0  0  0  0  0  0
   -4.8217   -1.0433    0.1789 N   0  0  0  0  0  0  0  0  0  0  0  0
   -6.2435   -1.2602    0.4624 C   0  0  1  0  0  0  0  0  0  0  0  0
   -7.1208   -0.3985   -0.4635 C   0  0  0  0  0  0  0  0  0  0  0  0
   -6.8997    1.0999   -0.2216 C   0  0  0  0  0  0  0  0  0  0  0  0
   -7.7816    1.9097   -1.1181 C   0  0  0  0  0  0  0  0  0  0  0  0
   -7.3465    2.2489   -2.3953 O   0  0  0  0  0  0  0  0  0  0  0  0
   -8.9321    2.2503   -0.7329 O   0  0  0  0  0  0  0  0  0  0  0  0
   -6.5765   -2.7135    0.2884 C   0  0  0  0  0  0  0  0  0  0  0  0
   -7.2566   -3.3924    1.2946 O   0  0  0  0  0  0  0  0  0  0  0  0
   -6.2607   -3.3161   -0.7731 O   0  0  0  0  0  0  0  0  0  0  0  0
    4.0617    2.2481    0.3766 C   0  0  0  0  0  0  0  0  0  0  0  0
    5.5106    2.3302    0.4364 N   0  0  0  0  0  0  0  0  0  0  0  0
    6.2915    1.1550    0.2366 C   0  0  0  0  0  0  0  0  0  0  0  0
    5.7250    0.0386   -0.4050 C   0  0  0  0  0  0  0  0  0  0  0  0
    6.5548   -1.1046   -0.5492 C   0  0  0  0  0  0  0  0  0  0  0  0
    6.1361   -2.1549   -1.1030 O   0  0  0  0  0  0  0  0  0  0  0  0
    7.8354   -1.0803   -0.0871 N   0  0  0  0  0  0  0  0  0  0  0  0
    8.3501    0.0267    0.5094 C   0  0  0  0  0  0  0  0  0  0  0  0
    9.6990    0.0345    0.9770 N   0  0  0  0  0  0  0  0  0  0  0  0
    7.5783    1.1288    0.6654 N   0  0  0  0  0  0  0  0  0  0  0  0
    3.7429   -1.9135   -1.4141 H   0  0  0  0  0  0  0  0  0  0  0  0
    3.8840    2.0175   -1.7568 H   0  0  0  0  0  0  0  0  0  0  0  0
    1.6053    2.2250   -0.6525 H   0  0  0  0  0  0  0  0  0  0  0  0
    1.7411    0.8770   -1.8159 H   0  0  0  0  0  0  0  0  0  0  0  0
    2.3823   -0.1580    0.8162 H   0  0  0  0  0  0  0  0  0  0  0  0
   -0.5610    1.2305   -1.0994 H   0  0  0  0  0  0  0  0  0  0  0  0
   -2.8683    0.6156   -0.6656 H   0  0  0  0  0  0  0  0  0  0  0  0
   -1.5739   -2.0589    2.4703 H   0  0  0  0  0  0  0  0  0  0  0  0
    0.7493   -1.4195    2.0464 H   0  0  0  0  0  0  0  0  0  0  0  0
   -4.5266   -0.9468   -0.8190 H   0  0  0  0  0  0  0  0  0  0  0  0
   -6.4643   -0.9699    1.5141 H   0  0  0  0  0  0  0  0  0  0  0  0
   -6.8969   -0.6404   -1.5267 H   0  0  0  0  0  0  0  0  0  0  0  0
   -8.1913   -0.6381   -0.2740 H   0  0  0  0  0  0  0  0  0  0  0  0
   -5.8405    1.3676   -0.4248 H   0  0  0  0  0  0  0  0  0  0  0  0
   -7.1225    1.3492    0.8389 H   0  0  0  0  0  0  0  0  0  0  0  0
   -7.9380    2.7829   -3.0207 H   0  0  0  0  0  0  0  0  0  0  0  0
   -7.4958   -4.3713    1.1907 H   0  0  0  0  0  0  0  0  0  0  0  0
    3.6973    1.7724    1.3122 H   0  0  0  0  0  0  0  0  0  0  0  0
    3.6358    3.2736    0.3193 H   0  0  0  0  0  0  0  0  0  0  0  0
    5.9678    3.2179    0.7442 H   0  0  0  0  0  0  0  0  0  0  0  0
    8.4369   -1.9282   -0.2002 H   0  0  0  0  0  0  0  0  0  0  0  0
   10.0924    0.8856    1.4366 H   0  0  0  0  0  0  0  0  0  0  0  0
   10.3077   -0.8066    0.8663 H   0  0  0  0  0  0  0  0  0  0  0  0
  1  2  2  0
  1  3  1  0
  3  4  1  0
  4  5  1  0
  5  6  1  0
  6  7  1  0
  7  8  2  0
  8  9  1  0
  9 10  2  0
 10 11  1  0
 11 12  2  0
 10 13  1  0
 13 14  2  0
 13 15  1  0
 15 16  1  0
 16 17  1  0
 17 18  1  0
 18 19  1  0
 19 20  1  0
 19 21  2  0
 16 22  1  0
 22 23  1  0
 22 24  2  0
  4 25  1  0
 25 26  1  0
 26 27  1  0
 27 28  2  0
 28 29  1  0
 29 30  2  0
 29 31  1  0
 31 32  1  0
 32 33  1  0
 32 34  2  0
 28  3  1  0
 12  7  1  0
 34 27  1  0
  1 35  1  0
  4 36  1  0
  5 37  1  0
  5 38  1  0
  6 39  1  0
  8 40  1  0
  9 41  1  0
 11 42  1  0
 12 43  1  0
 15 44  1  0
 16 45  1  1
 17 46  1  0
 17 47  1  0
 18 48  1  0
 18 49  1  0
 20 50  1  0
 23 51  1  0
 25 52  1  0
 25 53  1  0
 26 54  1  0
 31 55  1  0
 33 56  1  0
 33 57  1  0
M  END
$$$$
