
     RDKit          3D

 59 62  0  0  0  0  0  0  0  0999 V2000
   -5.7787    4.5061   -2.8034 C   0  0  0  0  0  0  0  0  0  0  0  0
   -4.2867    4.5019   -2.4836 C   0  0  0  0  0  0  0  0  0  0  0  0
   -3.8648    3.1823   -1.8280 C   0  0  0  0  0  0  0  0  0  0  0  0
   -2.3673    3.1823   -1.5087 C   0  0  0  0  0  0  0  0  0  0  0  0
   -1.9707    1.8903   -0.8694 C   0  0  0  0  0  0  0  0  0  0  0  0
   -1.5810    0.8048   -1.5654 N   0  0  0  0  0  0  0  0  0  0  0  0
   -1.3790   -0.1414   -0.6667 N   0  0  0  0  0  0  0  0  0  0  0  0
   -0.8961   -1.4811   -1.0003 C   0  0  0  0  0  0  0  0  0  0  0  0
    0.5613   -1.6191   -0.6499 C   0  0  0  0  0  0  0  0  0  0  0  0
    0.9996   -2.6235    0.2259 C   0  0  0  0  0  0  0  0  0  0  0  0
    2.3168   -2.7249    0.5463 N   0  0  0  0  0  0  0  0  0  0  0  0
    3.2492   -1.8714    0.0418 C   0  0  0  0  0  0  0  0  0  0  0  0
    2.8581   -0.8787   -0.8681 C   0  0  0  0  0  0  0  0  0  0  0  0
    1.5114   -0.7535   -1.2093 C   0  0  0  0  0  0  0  0  0  0  0  0
    4.6678   -2.0353    0.4195 C   0  0  0  0  0  0  0  0  0  0  0  0
    5.2731   -3.2797    0.1758 C   0  0  0  0  0  0  0  0  0  0  0  0
    6.6316   -3.4714    0.4294 C   0  0  0  0  0  0  0  0  0  0  0  0
    7.4028   -2.4245    0.9303 C   0  0  0  0  0  0  0  0  0  0  0  0
    6.8148   -1.1874    1.1997 C   0  0  0  0  0  0  0  0  0  0  0  0
    5.4423   -0.9776    0.9699 C   0  0  0  0  0  0  0  0  0  0  0  0
    4.8517    0.3241    1.3679 C   0  0  0  0  0  0  0  0  0  0  0  0
    3.5611    0.5125    1.7086 N   0  0  0  0  0  0  0  0  0  0  0  0
    3.4944    1.7926    2.0280 N   0  0  0  0  0  0  0  0  0  0  0  0
    4.6775    2.3681    1.9057 N   0  0  0  0  0  0  0  0  0  0  0  0
    5.5562    1.4677    1.4964 N   0  0  0  0  0  0  0  0  0  0  0  0
   -1.6453    0.3784    0.5511 C   0  0  0  0  0  0  0  0  0  0  0  0
   -1.5646   -0.3589    1.8599 C   0  0  0  0  0  0  0  0  0  0  0  0
   -2.9585   -0.6181    2.4526 C   0  0  0  0  0  0  0  0  0  0  0  0
   -3.7801   -1.6515    1.6627 C   0  0  0  0  0  0  0  0  0  0  0  0
   -3.3286   -3.0872    1.9310 C   0  0  0  0  0  0  0  0  0  0  0  0
   -2.0368    1.6653    0.4609 N   0  0  0  0  0  0  0  0  0  0  0  0
   -6.0547    5.4720   -3.2763 H   0  0  0  0  0  0  0  0  0  0  0  0
   -6.0248    3.6827   -3.5074 H   0  0  0  0  0  0  0  0  0  0  0  0
   -6.3731    4.3835   -1.8729 H   0  0  0  0  0  0  0  0  0  0  0  0
   -3.7165    4.6513   -3.4265 H   0  0  0  0  0  0  0  0  0  0  0  0
   -4.0634    5.3490   -1.7989 H   0  0  0  0  0  0  0  0  0  0  0  0
   -4.0939    2.3388   -2.5167 H   0  0  0  0  0  0  0  0  0  0  0  0
   -4.4414    3.0373   -0.8874 H   0  0  0  0  0  0  0  0  0  0  0  0
   -2.1276    4.0192   -0.8173 H   0  0  0  0  0  0  0  0  0  0  0  0
   -1.7808    3.3221   -2.4427 H   0  0  0  0  0  0  0  0  0  0  0  0
   -1.5130   -2.2399   -0.4757 H   0  0  0  0  0  0  0  0  0  0  0  0
   -1.0205   -1.6621   -2.0899 H   0  0  0  0  0  0  0  0  0  0  0  0
    0.2958   -3.3217    0.6600 H   0  0  0  0  0  0  0  0  0  0  0  0
    3.5882   -0.2081   -1.3045 H   0  0  0  0  0  0  0  0  0  0  0  0
    1.2087    0.0190   -1.9052 H   0  0  0  0  0  0  0  0  0  0  0  0
    4.6960   -4.0981   -0.2380 H   0  0  0  0  0  0  0  0  0  0  0  0
    7.0893   -4.4312    0.2272 H   0  0  0  0  0  0  0  0  0  0  0  0
    8.4575   -2.5747    1.1218 H   0  0  0  0  0  0  0  0  0  0  0  0
    7.4314   -0.4000    1.6156 H   0  0  0  0  0  0  0  0  0  0  0  0
    2.6265    2.2812    2.3394 H   0  0  0  0  0  0  0  0  0  0  0  0
   -1.0029   -1.3066    1.7569 H   0  0  0  0  0  0  0  0  0  0  0  0
   -0.9921    0.2728    2.5723 H   0  0  0  0  0  0  0  0  0  0  0  0
   -2.8478   -0.9583    3.5054 H   0  0  0  0  0  0  0  0  0  0  0  0
   -3.5224    0.3401    2.4846 H   0  0  0  0  0  0  0  0  0  0  0  0
   -3.7342   -1.4400    0.5731 H   0  0  0  0  0  0  0  0  0  0  0  0
   -4.8444   -1.5633    1.9710 H   0  0  0  0  0  0  0  0  0  0  0  0
   -3.9765   -3.7892    1.3653 H   0  0  0  0  0  0  0  0  0  0  0  0
   -2.2801   -3.2442    1.6072 H   0  0  0  0  0  0  0  0  0  0  0  0
   -3.4148   -3.3226    3.0131 H   0  0  0  0  0  0  0  0  0  0  0  0
  1  2  1  0
  2  3  1  0
  3  4  1  0
  4  5  1  0
  5  6  2  0
  6  7  1  0
  7  8  1  0
  8  9  1  0
  9 10  2  0
 10 11  1  0
 11 12  2  0
 12 13  1  0
 13 14  2  0
 12 15  1  0
 15 16  2  0
 16 17  1  0
 17 18  2  0
 18 19  1  0
 19 20  2  0
 20 21  1  0
 21 22  2  0
 22 23  1  0
 23 24  1  0
 24 25  2  0
  7 26  1  0
 26 27  1  0
 27 28  1  0
 28 29  1  0
 29 30  1  0
 26 31  2  0
 31  5  1  0
 14  9  1  0
 20 15  1  0
 25 21  1  0
  1 32  1  0
  1 33  1  0
  1 34  1  0
  2 35  1  0
  2 36  1  0
  3 37  1  0
  3 38  1  0
  4 39  1  0
  4 40  1  0
  8 41  1  0
  8 42  1  0
 10 43  1  0
 13 44  1  0
 14 45  1  0
 16 46  1  0
 17 47  1  0
 18 48  1  0
 19 49  1  0
 23 50  1  0
 27 51  1  0
 27 52  1  0
 28 53  1  0
 28 54  1  0
 29 55  1  0
 29 56  1  0
 30 57  1  0
 30 58  1  0
 30 59  1  0
M  END
$$$$
