
     RDKit          3D

 42 43  0  0  0  0  0  0  0  0999 V2000
    1.5681   -2.0227   -1.4649 C   0  0  0  0  0  0  0  0  0  0  0  0
    0.5428   -1.4149   -0.4900 C   0  0  2  0  0  0  0  0  0  0  0  0
    0.0995   -0.0779   -0.9437 N   0  0  0  0  0  0  0  0  0  0  0  0
   -0.6650   -0.0697   -2.2065 C   0  0  0  0  0  0  0  0  0  0  0  0
   -2.0385   -0.7667   -2.1215 C   0  0  0  0  0  0  0  0  0  0  0  0
   -2.9180   -0.1781   -1.0478 C   0  0  0  0  0  0  0  0  0  0  0  0
   -3.1172   -0.8604    0.1641 C   0  0  0  0  0  0  0  0  0  0  0  0
   -3.9040   -0.2939    1.1711 C   0  0  0  0  0  0  0  0  0  0  0  0
   -4.4998    0.9597    0.9776 C   0  0  0  0  0  0  0  0  0  0  0  0
   -5.2855    1.5342    1.9742 O   0  0  0  0  0  0  0  0  0  0  0  0
   -4.3040    1.6424   -0.2271 C   0  0  0  0  0  0  0  0  0  0  0  0
   -3.5159    1.0789   -1.2352 C   0  0  0  0  0  0  0  0  0  0  0  0
    1.1334   -1.3394    0.9477 C   0  0  2  0  0  0  0  0  0  0  0  0
    0.1483   -0.9279    1.8629 O   0  0  0  0  0  0  0  0  0  0  0  0
    2.3281   -0.4078    1.0328 C   0  0  0  0  0  0  0  0  0  0  0  0
    2.1571    0.9813    1.1846 C   0  0  0  0  0  0  0  0  0  0  0  0
    3.2665    1.8304    1.2337 C   0  0  0  0  0  0  0  0  0  0  0  0
    4.5586    1.3078    1.1287 C   0  0  0  0  0  0  0  0  0  0  0  0
    5.6544    2.1665    1.1783 O   0  0  0  0  0  0  0  0  0  0  0  0
    4.7389   -0.0725    0.9740 C   0  0  0  0  0  0  0  0  0  0  0  0
    3.6318   -0.9245    0.9249 C   0  0  0  0  0  0  0  0  0  0  0  0
    2.0520   -2.9169   -1.0177 H   0  0  0  0  0  0  0  0  0  0  0  0
    2.3518   -1.2792   -1.7230 H   0  0  0  0  0  0  0  0  0  0  0  0
    1.0689   -2.3606   -2.3962 H   0  0  0  0  0  0  0  0  0  0  0  0
   -0.3209   -2.1096   -0.4375 H   0  0  0  0  0  0  0  0  0  0  0  0
   -0.4853    0.3735   -0.2037 H   0  0  0  0  0  0  0  0  0  0  0  0
   -0.0703   -0.5183   -3.0279 H   0  0  0  0  0  0  0  0  0  0  0  0
   -0.8276    0.9890   -2.5037 H   0  0  0  0  0  0  0  0  0  0  0  0
   -2.5497   -0.6486   -3.1016 H   0  0  0  0  0  0  0  0  0  0  0  0
   -1.9135   -1.8604   -1.9800 H   0  0  0  0  0  0  0  0  0  0  0  0
   -2.6623   -1.8282    0.3318 H   0  0  0  0  0  0  0  0  0  0  0  0
   -4.0486   -0.8287    2.1011 H   0  0  0  0  0  0  0  0  0  0  0  0
   -5.4459    1.0652    2.8580 H   0  0  0  0  0  0  0  0  0  0  0  0
   -4.7604    2.6119   -0.3811 H   0  0  0  0  0  0  0  0  0  0  0  0
   -3.3681    1.6227   -2.1600 H   0  0  0  0  0  0  0  0  0  0  0  0
    1.4667   -2.3629    1.2435 H   0  0  0  0  0  0  0  0  0  0  0  0
   -0.4863   -1.6846    1.9671 H   0  0  0  0  0  0  0  0  0  0  0  0
    1.1669    1.4101    1.2683 H   0  0  0  0  0  0  0  0  0  0  0  0
    3.1216    2.8967    1.3525 H   0  0  0  0  0  0  0  0  0  0  0  0
    6.6033    1.8186    1.1047 H   0  0  0  0  0  0  0  0  0  0  0  0
    5.7358   -0.4859    0.8893 H   0  0  0  0  0  0  0  0  0  0  0  0
    3.7921   -1.9880    0.7982 H   0  0  0  0  0  0  0  0  0  0  0  0
  1  2  1  0
  2  3  1  0
  3  4  1  0
  4  5  1  0
  5  6  1  0
  6  7  2  0
  7  8  1  0
  8  9  2  0
  9 10  1  0
  9 11  1  0
 11 12  2  0
  2 13  1  0
 13 14  1  0
 13 15  1  0
 15 16  2  0
 16 17  1  0
 17 18  2  0
 18 19  1  0
 18 20  1  0
 20 21  2  0
 12  6  1  0
 21 15  1  0
  1 22  1  0
  1 23  1  0
  1 24  1  0
  2 25  1  1
  3 26  1  0
  4 27  1  0
  4 28  1  0
  5 29  1  0
  5 30  1  0
  7 31  1  0
  8 32  1  0
 10 33  1  0
 11 34  1  0
 12 35  1  0
 13 36  1  1
 14 37  1  0
 16 38  1  0
 17 39  1  0
 19 40  1  0
 20 41  1  0
 21 42  1  0
M  END
$$$$
