
     RDKit          3D

 57 61  0  0  0  0  0  0  0  0999 V2000
   -2.6763    1.1778    0.7261 C   0  0  1  0  0  0  0  0  0  0  0  0
   -1.7167    0.1250    0.8705 O   0  0  0  0  0  0  0  0  0  0  0  0
   -0.4601    0.1964    0.2631 C   0  0  0  0  0  0  0  0  0  0  0  0
   -0.2268    1.1773   -0.7062 C   0  0  0  0  0  0  0  0  0  0  0  0
   -1.2703    2.0290   -1.0788 O   0  0  0  0  0  0  0  0  0  0  0  0
   -2.6266    1.7488   -0.7160 C   0  0  2  0  0  0  0  0  0  0  0  0
   -3.4621    3.0289   -0.8574 C   0  0  0  0  0  0  0  0  0  0  0  0
   -3.3651    3.5347   -2.1613 O   0  0  0  0  0  0  0  0  0  0  0  0
    1.0365    1.3004   -1.2863 C   0  0  0  0  0  0  0  0  0  0  0  0
    2.0605    0.4193   -0.9239 C   0  0  0  0  0  0  0  0  0  0  0  0
    1.8252   -0.6027    0.0189 C   0  0  0  0  0  0  0  0  0  0  0  0
    0.5547   -0.6960    0.6177 C   0  0  0  0  0  0  0  0  0  0  0  0
    2.9242   -1.5527    0.4592 C   0  0  1  0  0  0  0  0  0  0  0  0
    3.7908   -1.8888   -0.6335 O   0  0  0  0  0  0  0  0  0  0  0  0
    4.9912   -1.2184   -0.9165 C   0  0  0  0  0  0  0  0  0  0  0  0
    5.4984   -0.2422   -0.0342 C   0  0  0  0  0  0  0  0  0  0  0  0
    6.7231    0.4031   -0.3445 C   0  0  0  0  0  0  0  0  0  0  0  0
    7.3446    1.3097    0.5171 O   0  0  0  0  0  0  0  0  0  0  0  0
    7.3725    0.1057   -1.5488 C   0  0  0  0  0  0  0  0  0  0  0  0
    6.8546   -0.8572   -2.4221 C   0  0  0  0  0  0  0  0  0  0  0  0
    7.5103   -1.1622   -3.6128 O   0  0  0  0  0  0  0  0  0  0  0  0
    5.6734   -1.5245   -2.0964 C   0  0  0  0  0  0  0  0  0  0  0  0
    4.6891    0.0535    1.1693 C   0  0  0  0  0  0  0  0  0  0  0  0
    4.7590    1.1662    1.7557 O   0  0  0  0  0  0  0  0  0  0  0  0
    3.7167   -0.9797    1.6559 C   0  0  2  0  0  0  0  0  0  0  0  0
    4.4372   -2.0044    2.2888 O   0  0  0  0  0  0  0  0  0  0  0  0
   -4.0503    0.6547    1.0765 C   0  0  0  0  0  0  0  0  0  0  0  0
   -4.5233   -0.5408    0.5082 C   0  0  0  0  0  0  0  0  0  0  0  0
   -5.8123   -1.0199    0.8145 C   0  0  0  0  0  0  0  0  0  0  0  0
   -6.3170   -2.2105    0.2685 O   0  0  0  0  0  0  0  0  0  0  0  0
   -5.6035   -3.0489   -0.6347 C   0  0  0  0  0  0  0  0  0  0  0  0
   -6.6262   -0.2893    1.6917 C   0  0  0  0  0  0  0  0  0  0  0  0
   -7.9024   -0.7581    1.9992 O   0  0  0  0  0  0  0  0  0  0  0  0
   -6.1590    0.9056    2.2539 C   0  0  0  0  0  0  0  0  0  0  0  0
   -4.8812    1.3763    1.9471 C   0  0  0  0  0  0  0  0  0  0  0  0
   -2.3864    1.9876    1.4330 H   0  0  0  0  0  0  0  0  0  0  0  0
   -3.0200    0.9836   -1.4215 H   0  0  0  0  0  0  0  0  0  0  0  0
   -3.0839    3.7989   -0.1516 H   0  0  0  0  0  0  0  0  0  0  0  0
   -4.5285    2.8298   -0.6067 H   0  0  0  0  0  0  0  0  0  0  0  0
   -3.9287    2.9519   -2.7345 H   0  0  0  0  0  0  0  0  0  0  0  0
    1.2226    2.0713   -2.0231 H   0  0  0  0  0  0  0  0  0  0  0  0
    3.0292    0.5406   -1.3859 H   0  0  0  0  0  0  0  0  0  0  0  0
    0.3571   -1.4501    1.3698 H   0  0  0  0  0  0  0  0  0  0  0  0
    2.4402   -2.4994    0.7862 H   0  0  0  0  0  0  0  0  0  0  0  0
    7.0682    1.4521    1.4778 H   0  0  0  0  0  0  0  0  0  0  0  0
    8.3006    0.6077   -1.7927 H   0  0  0  0  0  0  0  0  0  0  0  0
    8.3707   -0.6972   -3.8779 H   0  0  0  0  0  0  0  0  0  0  0  0
    5.2745   -2.2727   -2.7699 H   0  0  0  0  0  0  0  0  0  0  0  0
    3.0150   -0.5119    2.3874 H   0  0  0  0  0  0  0  0  0  0  0  0
    3.7869   -2.5155    2.8383 H   0  0  0  0  0  0  0  0  0  0  0  0
   -3.8833   -1.0885   -0.1704 H   0  0  0  0  0  0  0  0  0  0  0  0
   -5.3572   -2.4892   -1.5617 H   0  0  0  0  0  0  0  0  0  0  0  0
   -6.2396   -3.9172   -0.9026 H   0  0  0  0  0  0  0  0  0  0  0  0
   -4.6744   -3.4234   -0.1552 H   0  0  0  0  0  0  0  0  0  0  0  0
   -8.5154   -0.2536    2.6289 H   0  0  0  0  0  0  0  0  0  0  0  0
   -6.7882    1.4725    2.9283 H   0  0  0  0  0  0  0  0  0  0  0  0
   -4.5423    2.3065    2.3860 H   0  0  0  0  0  0  0  0  0  0  0  0
  1  2  1  0
  2  3  1  0
  3  4  2  0
  4  5  1  0
  5  6  1  0
  6  7  1  0
  7  8  1  0
  4  9  1  0
  9 10  2  0
 10 11  1  0
 11 12  2  0
 11 13  1  0
 13 14  1  0
 14 15  1  0
 15 16  2  0
 16 17  1  0
 17 18  1  0
 17 19  2  0
 19 20  1  0
 20 21  1  0
 20 22  2  0
 16 23  1  0
 23 24  2  0
 23 25  1  0
 25 26  1  0
  1 27  1  0
 27 28  2  0
 28 29  1  0
 29 30  1  0
 30 31  1  0
 29 32  2  0
 32 33  1  0
 32 34  1  0
 34 35  2  0
  6  1  1  0
 25 13  1  0
 35 27  1  0
 12  3  1  0
 22 15  1  0
  1 36  1  1
  6 37  1  6
  7 38  1  0
  7 39  1  0
  8 40  1  0
  9 41  1  0
 10 42  1  0
 12 43  1  0
 13 44  1  1
 18 45  1  0
 19 46  1  0
 21 47  1  0
 22 48  1  0
 25 49  1  1
 26 50  1  0
 28 51  1  0
 31 52  1  0
 31 53  1  0
 31 54  1  0
 33 55  1  0
 34 56  1  0
 35 57  1  0
M  END
$$$$
