
     RDKit          3D

 37 38  0  0  0  0  0  0  0  0999 V2000
   -2.2147    1.4458   -1.9203 C   0  0  0  0  0  0  0  0  0  0  0  0
   -3.0358    0.5128   -1.0098 C   0  0  0  0  0  0  0  0  0  0  0  0
   -3.5956    1.3108    0.1845 C   0  0  0  0  0  0  0  0  0  0  0  0
   -4.2236   -0.0524   -1.8208 C   0  0  0  0  0  0  0  0  0  0  0  0
   -2.1419   -0.6115   -0.5015 C   0  0  0  0  0  0  0  0  0  0  0  0
   -2.3449   -1.8000   -0.8773 O   0  0  0  0  0  0  0  0  0  0  0  0
   -1.0304   -0.3251    0.3657 N   0  0  0  0  0  0  0  0  0  0  0  0
   -0.2431   -1.3521    0.9904 C   0  0  0  0  0  0  0  0  0  0  0  0
    1.1710   -1.2747    1.0324 C   0  0  0  0  0  0  0  0  0  0  0  0
    1.8668   -2.2213    1.7233 N   0  0  0  0  0  0  0  0  0  0  0  0
    1.2575   -3.2457    2.3742 C   0  0  0  0  0  0  0  0  0  0  0  0
   -0.1301   -3.3600    2.3493 C   0  0  0  0  0  0  0  0  0  0  0  0
   -0.8802   -2.4084    1.6610 C   0  0  0  0  0  0  0  0  0  0  0  0
    1.9358   -0.2283    0.3125 C   0  0  0  0  0  0  0  0  0  0  0  0
    1.4243    0.3492   -0.6841 O   0  0  0  0  0  0  0  0  0  0  0  0
    3.2699    0.1036    0.7376 N   0  0  0  0  0  0  0  0  0  0  0  0
    4.1589    0.9940    0.0452 C   0  0  0  0  0  0  0  0  0  0  0  0
    5.3690    1.3343    0.5392 N   0  0  0  0  0  0  0  0  0  0  0  0
    6.0420    2.1705   -0.2959 C   0  0  0  0  0  0  0  0  0  0  0  0
    5.3727    2.5001   -1.4687 C   0  0  0  0  0  0  0  0  0  0  0  0
    3.8865    1.7138   -1.4550 S   0  0  0  0  0  0  0  0  0  0  0  0
   -1.3822    1.9235   -1.3617 H   0  0  0  0  0  0  0  0  0  0  0  0
   -1.7815    0.8762   -2.7709 H   0  0  0  0  0  0  0  0  0  0  0  0
   -2.8563    2.2549   -2.3318 H   0  0  0  0  0  0  0  0  0  0  0  0
   -4.2910    2.1040   -0.1661 H   0  0  0  0  0  0  0  0  0  0  0  0
   -4.1512    0.6388    0.8742 H   0  0  0  0  0  0  0  0  0  0  0  0
   -2.7838    1.8056    0.7579 H   0  0  0  0  0  0  0  0  0  0  0  0
   -3.8619   -0.6169   -2.7077 H   0  0  0  0  0  0  0  0  0  0  0  0
   -4.8811    0.7682   -2.1814 H   0  0  0  0  0  0  0  0  0  0  0  0
   -4.8359   -0.7361   -1.1934 H   0  0  0  0  0  0  0  0  0  0  0  0
   -0.7574    0.6686    0.5316 H   0  0  0  0  0  0  0  0  0  0  0  0
    1.8529   -3.9728    2.9100 H   0  0  0  0  0  0  0  0  0  0  0  0
   -0.6213   -4.1712    2.8709 H   0  0  0  0  0  0  0  0  0  0  0  0
   -1.9605   -2.4776    1.6757 H   0  0  0  0  0  0  0  0  0  0  0  0
    3.6235   -0.3124    1.6283 H   0  0  0  0  0  0  0  0  0  0  0  0
    7.0281    2.5455   -0.0578 H   0  0  0  0  0  0  0  0  0  0  0  0
    5.7458    3.1464   -2.2515 H   0  0  0  0  0  0  0  0  0  0  0  0
  1  2  1  0
  2  3  1  0
  2  4  1  0
  2  5  1  0
  5  6  2  0
  5  7  1  0
  7  8  1  0
  8  9  2  0
  9 10  1  0
 10 11  2  0
 11 12  1  0
 12 13  2  0
  9 14  1  0
 14 15  2  0
 14 16  1  0
 16 17  1  0
 17 18  2  0
 18 19  1  0
 19 20  2  0
 20 21  1  0
 13  8  1  0
 21 17  1  0
  1 22  1  0
  1 23  1  0
  1 24  1  0
  3 25  1  0
  3 26  1  0
  3 27  1  0
  4 28  1  0
  4 29  1  0
  4 30  1  0
  7 31  1  0
 11 32  1  0
 12 33  1  0
 13 34  1  0
 16 35  1  0
 19 36  1  0
 20 37  1  0
M  END
$$$$
