
     RDKit          3D

 23 23  0  0  0  0  0  0  0  0999 V2000
    2.5890    0.4061    0.1286 C   0  0  0  0  0  0  0  0  0  0  0  0
    1.0602    0.3232    0.1307 C   0  0  1  0  0  0  0  0  0  0  0  0
    0.5506    1.0296   -0.9848 O   0  0  0  0  0  0  0  0  0  0  0  0
   -0.8583    1.2418   -0.8921 C   0  0  2  0  0  0  0  0  0  0  0  0
   -1.1376    2.5110   -0.3576 O   0  0  0  0  0  0  0  0  0  0  0  0
   -1.6545    0.1169   -0.1603 C   0  0  2  0  0  0  0  0  0  0  0  0
   -1.7777    0.3890    1.2142 O   0  0  0  0  0  0  0  0  0  0  0  0
   -0.9383   -1.2318   -0.3468 C   0  0  1  0  0  0  0  0  0  0  0  0
   -0.9979   -1.6073   -1.7014 O   0  0  0  0  0  0  0  0  0  0  0  0
    0.5386   -1.1437    0.1317 C   0  0  1  0  0  0  0  0  0  0  0  0
    1.3632   -2.0092   -0.6136 O   0  0  0  0  0  0  0  0  0  0  0  0
    2.9048    1.4623    0.2655 H   0  0  0  0  0  0  0  0  0  0  0  0
    3.0080   -0.1970    0.9621 H   0  0  0  0  0  0  0  0  0  0  0  0
    3.0069    0.0432   -0.8339 H   0  0  0  0  0  0  0  0  0  0  0  0
    0.7381    0.8170    1.0764 H   0  0  0  0  0  0  0  0  0  0  0  0
   -1.2325    1.2524   -1.9382 H   0  0  0  0  0  0  0  0  0  0  0  0
   -0.6034    2.6111    0.4717 H   0  0  0  0  0  0  0  0  0  0  0  0
   -2.6735    0.0396   -0.6102 H   0  0  0  0  0  0  0  0  0  0  0  0
   -2.5386    1.0182    1.3185 H   0  0  0  0  0  0  0  0  0  0  0  0
   -1.4570   -2.0061    0.2672 H   0  0  0  0  0  0  0  0  0  0  0  0
   -1.9173   -1.9433   -1.8689 H   0  0  0  0  0  0  0  0  0  0  0  0
    0.5727   -1.4938    1.1872 H   0  0  0  0  0  0  0  0  0  0  0  0
    1.4546   -1.6292   -1.5262 H   0  0  0  0  0  0  0  0  0  0  0  0
  1  2  1  0
  2  3  1  0
  3  4  1  0
  4  5  1  0
  4  6  1  0
  6  7  1  0
  6  8  1  0
  8  9  1  0
  8 10  1  0
 10 11  1  0
 10  2  1  0
  1 12  1  0
  1 13  1  0
  1 14  1  0
  2 15  1  1
  4 16  1  6
  5 17  1  0
  6 18  1  6
  7 19  1  0
  8 20  1  1
  9 21  1  0
 10 22  1  1
 11 23  1  0
M  END
$$$$
