
     RDKit          3D

 53 55  0  0  0  0  0  0  0  0999 V2000
    1.5623   -0.6558    2.9917 N   0  0  0  0  0  0  0  0  0  0  0  0
    0.4393   -0.0553    2.3244 C   0  0  0  0  0  0  0  0  0  0  0  0
    0.5946    1.0696    1.4966 C   0  0  0  0  0  0  0  0  0  0  0  0
   -0.5164    1.6480    0.8764 C   0  0  0  0  0  0  0  0  0  0  0  0
   -1.7988    1.1261    1.0789 C   0  0  0  0  0  0  0  0  0  0  0  0
   -2.8767    1.7474    0.4267 O   0  0  0  0  0  0  0  0  0  0  0  0
   -4.2279    1.2850    0.4310 C   0  0  0  0  0  0  0  0  0  0  0  0
   -4.3949    0.0652   -0.4940 C   0  0  2  0  0  0  0  0  0  0  0  0
   -4.1295    0.4288   -1.8239 O   0  0  0  0  0  0  0  0  0  0  0  0
   -5.8111   -0.5224   -0.3889 C   0  0  0  0  0  0  0  0  0  0  0  0
   -6.8286    0.4754   -0.7997 N   0  0  0  0  0  0  0  0  0  0  0  0
   -7.9571    0.5009    0.1441 C   0  0  0  0  0  0  0  0  0  0  0  0
   -7.3249    0.2060   -2.1598 C   0  0  0  0  0  0  0  0  0  0  0  0
   -1.9590    0.0162    1.9309 C   0  0  0  0  0  0  0  0  0  0  0  0
   -0.8477   -0.5619    2.5517 C   0  0  0  0  0  0  0  0  0  0  0  0
    2.8701   -0.7795    2.4149 C   0  0  0  0  0  0  0  0  0  0  0  0
    3.9141   -1.1625    3.1968 N   0  0  0  0  0  0  0  0  0  0  0  0
    5.1574   -1.3233    2.6757 C   0  0  0  0  0  0  0  0  0  0  0  0
    5.3782   -1.1005    1.3178 C   0  0  0  0  0  0  0  0  0  0  0  0
    4.2973   -0.7007    0.5187 C   0  0  0  0  0  0  0  0  0  0  0  0
    3.0681   -0.5704    1.0845 N   0  0  0  0  0  0  0  0  0  0  0  0
    4.4427   -0.4866   -0.8942 N   0  0  0  0  0  0  0  0  0  0  0  0
    5.6730   -0.1033   -1.5335 C   0  0  0  0  0  0  0  0  0  0  0  0
    6.0048   -0.6173   -2.8027 C   0  0  0  0  0  0  0  0  0  0  0  0
    4.9737   -1.7922   -3.6090 Cl  0  0  0  0  0  0  0  0  0  0  0  0
    7.1885   -0.2155   -3.4332 C   0  0  0  0  0  0  0  0  0  0  0  0
    8.0387    0.7046   -2.8159 C   0  0  0  0  0  0  0  0  0  0  0  0
    7.7080    1.2331   -1.5655 C   0  0  0  0  0  0  0  0  0  0  0  0
    8.7687    2.4008   -0.7984 Cl  0  0  0  0  0  0  0  0  0  0  0  0
    6.5274    0.8369   -0.9294 C   0  0  0  0  0  0  0  0  0  0  0  0
    1.4004   -1.1051    3.9216 H   0  0  0  0  0  0  0  0  0  0  0  0
    1.5680    1.5175    1.3475 H   0  0  0  0  0  0  0  0  0  0  0  0
   -0.3808    2.5121    0.2382 H   0  0  0  0  0  0  0  0  0  0  0  0
   -4.5540    1.0558    1.4681 H   0  0  0  0  0  0  0  0  0  0  0  0
   -4.8730    2.1108    0.0626 H   0  0  0  0  0  0  0  0  0  0  0  0
   -3.6859   -0.7347   -0.1796 H   0  0  0  0  0  0  0  0  0  0  0  0
   -3.1422    0.4736   -1.9198 H   0  0  0  0  0  0  0  0  0  0  0  0
   -5.8666   -1.4491   -1.0055 H   0  0  0  0  0  0  0  0  0  0  0  0
   -5.9589   -0.8554    0.6648 H   0  0  0  0  0  0  0  0  0  0  0  0
   -8.4499   -0.4951    0.2069 H   0  0  0  0  0  0  0  0  0  0  0  0
   -7.5993    0.7953    1.1542 H   0  0  0  0  0  0  0  0  0  0  0  0
   -8.7064    1.2593   -0.1702 H   0  0  0  0  0  0  0  0  0  0  0  0
   -8.0138    1.0164   -2.4815 H   0  0  0  0  0  0  0  0  0  0  0  0
   -6.4830    0.1859   -2.8833 H   0  0  0  0  0  0  0  0  0  0  0  0
   -7.8633   -0.7670   -2.2068 H   0  0  0  0  0  0  0  0  0  0  0  0
   -2.9336   -0.4078    2.1255 H   0  0  0  0  0  0  0  0  0  0  0  0
   -0.9881   -1.4146    3.2043 H   0  0  0  0  0  0  0  0  0  0  0  0
    5.9729   -1.6344    3.3148 H   0  0  0  0  0  0  0  0  0  0  0  0
    6.3640   -1.2574    0.9002 H   0  0  0  0  0  0  0  0  0  0  0  0
    3.5876   -0.5848   -1.4864 H   0  0  0  0  0  0  0  0  0  0  0  0
    7.4512   -0.6175   -4.4036 H   0  0  0  0  0  0  0  0  0  0  0  0
    8.9514    1.0092   -3.3122 H   0  0  0  0  0  0  0  0  0  0  0  0
    6.2690    1.2721    0.0277 H   0  0  0  0  0  0  0  0  0  0  0  0
  1  2  1  0
  2  3  2  0
  3  4  1  0
  4  5  2  0
  5  6  1  0
  6  7  1  0
  7  8  1  0
  8  9  1  0
  8 10  1  0
 10 11  1  0
 11 12  1  0
 11 13  1  0
  5 14  1  0
 14 15  2  0
  1 16  1  0
 16 17  2  0
 17 18  1  0
 18 19  2  0
 19 20  1  0
 20 21  2  0
 20 22  1  0
 22 23  1  0
 23 24  2  0
 24 25  1  0
 24 26  1  0
 26 27  2  0
 27 28  1  0
 28 29  1  0
 28 30  2  0
 15  2  1  0
 21 16  1  0
 30 23  1  0
  1 31  1  0
  3 32  1  0
  4 33  1  0
  7 34  1  0
  7 35  1  0
  8 36  1  1
  9 37  1  0
 10 38  1  0
 10 39  1  0
 12 40  1  0
 12 41  1  0
 12 42  1  0
 13 43  1  0
 13 44  1  0
 13 45  1  0
 14 46  1  0
 15 47  1  0
 18 48  1  0
 19 49  1  0
 22 50  1  0
 26 51  1  0
 27 52  1  0
 30 53  1  0
M  END
$$$$
