
     RDKit          3D

 32 33  0  0  0  0  0  0  0  0999 V2000
   -3.8948   -0.3197    0.1093 C   0  0  0  0  0  0  0  0  0  0  0  0
   -2.6344    0.3693   -0.4296 C   0  0  0  0  0  0  0  0  0  0  0  0
   -2.9176    1.1632   -1.6765 C   0  0  0  0  0  0  0  0  0  0  0  0
   -2.2749    2.3815   -1.8735 O   0  0  0  0  0  0  0  0  0  0  0  0
   -3.6948    0.7163   -2.5636 O   0  0  0  0  0  0  0  0  0  0  0  0
   -1.5213   -0.6300   -0.6745 C   0  0  0  0  0  0  0  0  0  0  0  0
   -0.3260   -0.5468    0.0623 C   0  0  0  0  0  0  0  0  0  0  0  0
    0.7192   -1.4618   -0.1609 C   0  0  0  0  0  0  0  0  0  0  0  0
    1.9183   -1.4085    0.5650 O   0  0  0  0  0  0  0  0  0  0  0  0
    2.5208   -0.2399    1.0543 C   0  0  0  0  0  0  0  0  0  0  0  0
    3.3020   -0.3205    2.2140 C   0  0  0  0  0  0  0  0  0  0  0  0
    3.9303    0.8199    2.7243 C   0  0  0  0  0  0  0  0  0  0  0  0
    3.7917    2.0473    2.0704 C   0  0  0  0  0  0  0  0  0  0  0  0
    3.0307    2.1338    0.9014 C   0  0  0  0  0  0  0  0  0  0  0  0
    2.4013    0.9951    0.3889 C   0  0  0  0  0  0  0  0  0  0  0  0
    0.5476   -2.4850   -1.0985 C   0  0  0  0  0  0  0  0  0  0  0  0
   -0.6357   -2.5780   -1.8334 C   0  0  0  0  0  0  0  0  0  0  0  0
   -1.6638   -1.6552   -1.6285 C   0  0  0  0  0  0  0  0  0  0  0  0
   -3.6574   -0.8596    1.0509 H   0  0  0  0  0  0  0  0  0  0  0  0
   -4.6763    0.4384    0.3308 H   0  0  0  0  0  0  0  0  0  0  0  0
   -4.3038   -1.0469   -0.6239 H   0  0  0  0  0  0  0  0  0  0  0  0
   -2.3151    1.0952    0.3512 H   0  0  0  0  0  0  0  0  0  0  0  0
   -2.4361    2.9243   -2.7134 H   0  0  0  0  0  0  0  0  0  0  0  0
   -0.2153    0.2171    0.8210 H   0  0  0  0  0  0  0  0  0  0  0  0
    3.4156   -1.2683    2.7248 H   0  0  0  0  0  0  0  0  0  0  0  0
    4.5258    0.7518    3.6255 H   0  0  0  0  0  0  0  0  0  0  0  0
    4.2795    2.9291    2.4652 H   0  0  0  0  0  0  0  0  0  0  0  0
    2.9345    3.0819    0.3881 H   0  0  0  0  0  0  0  0  0  0  0  0
    1.8397    1.0741   -0.5326 H   0  0  0  0  0  0  0  0  0  0  0  0
    1.3388   -3.2051   -1.2642 H   0  0  0  0  0  0  0  0  0  0  0  0
   -0.7567   -3.3677   -2.5637 H   0  0  0  0  0  0  0  0  0  0  0  0
   -2.5720   -1.7451   -2.2102 H   0  0  0  0  0  0  0  0  0  0  0  0
  1  2  1  0
  2  3  1  0
  3  4  1  0
  3  5  2  0
  2  6  1  0
  6  7  2  0
  7  8  1  0
  8  9  1  0
  9 10  1  0
 10 11  2  0
 11 12  1  0
 12 13  2  0
 13 14  1  0
 14 15  2  0
  8 16  2  0
 16 17  1  0
 17 18  2  0
 18  6  1  0
 15 10  1  0
  1 19  1  0
  1 20  1  0
  1 21  1  0
  2 22  1  0
  4 23  1  0
  7 24  1  0
 11 25  1  0
 12 26  1  0
 13 27  1  0
 14 28  1  0
 15 29  1  0
 16 30  1  0
 17 31  1  0
 18 32  1  0
M  END
$$$$
