
     RDKit          3D

 41 43  0  0  0  0  0  0  0  0999 V2000
    3.2453   -0.2588    0.0488 C   0  0  2  0  0  0  0  0  0  0  0  0
    3.2956   -1.7820    0.3408 C   0  0  0  0  0  0  0  0  0  0  0  0
    3.1054   -1.9217    1.7704 N   0  0  0  0  0  0  0  0  0  0  0  0
    3.0833   -0.6510    2.3798 C   0  0  0  0  0  0  0  0  0  0  0  0
    2.9658   -0.4942    3.6234 O   0  0  0  0  0  0  0  0  0  0  0  0
    3.2291    0.4600    1.4187 C   0  0  0  0  0  0  0  0  0  0  0  0
    2.0374    0.1129   -0.7936 C   0  0  0  0  0  0  0  0  0  0  0  0
    0.7341   -0.1525   -0.3382 C   0  0  0  0  0  0  0  0  0  0  0  0
   -0.3866    0.2036   -1.1124 C   0  0  0  0  0  0  0  0  0  0  0  0
   -1.7024   -0.0380   -0.6822 O   0  0  0  0  0  0  0  0  0  0  0  0
   -2.0730   -0.5862    0.5853 C   0  0  0  0  0  0  0  0  0  0  0  0
   -1.8241    0.4067    1.7268 C   0  0  0  0  0  0  0  0  0  0  0  0
   -3.1008    0.4545    2.5626 C   0  0  0  0  0  0  0  0  0  0  0  0
   -3.9955   -0.6587    2.0438 C   0  0  0  0  0  0  0  0  0  0  0  0
   -3.5661   -0.8798    0.6071 C   0  0  0  0  0  0  0  0  0  0  0  0
   -0.1998    0.8207   -2.3586 C   0  0  0  0  0  0  0  0  0  0  0  0
   -1.3353    1.1603   -3.1112 O   0  0  0  0  0  0  0  0  0  0  0  0
   -1.2982    1.7903   -4.3876 C   0  0  0  0  0  0  0  0  0  0  0  0
    1.1051    1.0824   -2.8160 C   0  0  0  0  0  0  0  0  0  0  0  0
    2.2108    0.7333   -2.0389 C   0  0  0  0  0  0  0  0  0  0  0  0
    4.1792    0.0266   -0.4864 H   0  0  0  0  0  0  0  0  0  0  0  0
    2.5103   -2.3522   -0.2016 H   0  0  0  0  0  0  0  0  0  0  0  0
    4.2900   -2.1941    0.0642 H   0  0  0  0  0  0  0  0  0  0  0  0
    3.0733   -2.8309    2.2827 H   0  0  0  0  0  0  0  0  0  0  0  0
    2.3888    1.1802    1.5268 H   0  0  0  0  0  0  0  0  0  0  0  0
    4.1932    0.9822    1.5996 H   0  0  0  0  0  0  0  0  0  0  0  0
    0.6071   -0.6364    0.6191 H   0  0  0  0  0  0  0  0  0  0  0  0
   -1.5253   -1.5374    0.7711 H   0  0  0  0  0  0  0  0  0  0  0  0
   -0.9709    0.0646    2.3523 H   0  0  0  0  0  0  0  0  0  0  0  0
   -1.5906    1.4207    1.3334 H   0  0  0  0  0  0  0  0  0  0  0  0
   -3.6067    1.4349    2.4191 H   0  0  0  0  0  0  0  0  0  0  0  0
   -2.8820    0.3163    3.6438 H   0  0  0  0  0  0  0  0  0  0  0  0
   -3.8181   -1.5863    2.6321 H   0  0  0  0  0  0  0  0  0  0  0  0
   -5.0701   -0.3819    2.1083 H   0  0  0  0  0  0  0  0  0  0  0  0
   -4.1090   -0.1649   -0.0513 H   0  0  0  0  0  0  0  0  0  0  0  0
   -3.7823   -1.9187    0.2757 H   0  0  0  0  0  0  0  0  0  0  0  0
   -0.7580    1.1480   -5.1148 H   0  0  0  0  0  0  0  0  0  0  0  0
   -2.3364    1.9394   -4.7483 H   0  0  0  0  0  0  0  0  0  0  0  0
   -0.8031    2.7813   -4.3100 H   0  0  0  0  0  0  0  0  0  0  0  0
    1.2763    1.5582   -3.7718 H   0  0  0  0  0  0  0  0  0  0  0  0
    3.2041    0.9487   -2.4126 H   0  0  0  0  0  0  0  0  0  0  0  0
  1  2  1  0
  2  3  1  0
  3  4  1  0
  4  5  2  0
  4  6  1  0
  1  7  1  0
  7  8  2  0
  8  9  1  0
  9 10  1  0
 10 11  1  0
 11 12  1  0
 12 13  1  0
 13 14  1  0
 14 15  1  0
  9 16  2  0
 16 17  1  0
 17 18  1  0
 16 19  1  0
 19 20  2  0
  6  1  1  0
 20  7  1  0
 15 11  1  0
  1 21  1  6
  2 22  1  0
  2 23  1  0
  3 24  1  0
  6 25  1  0
  6 26  1  0
  8 27  1  0
 11 28  1  0
 12 29  1  0
 12 30  1  0
 13 31  1  0
 13 32  1  0
 14 33  1  0
 14 34  1  0
 15 35  1  0
 15 36  1  0
 18 37  1  0
 18 38  1  0
 18 39  1  0
 19 40  1  0
 20 41  1  0
M  END
$$$$
