
     RDKit          3D

 20 20  0  0  0  0  0  0  0  0999 V2000
    3.7822    0.0977   -0.2342 C   0  0  0  0  0  0  0  0  0  0  0  0
    2.3483   -0.1078   -0.5994 C   0  0  0  0  0  0  0  0  0  0  0  0
    2.0628   -0.7886   -1.6212 O   0  0  0  0  0  0  0  0  0  0  0  0
    1.3178    0.5467    0.1568 N   0  0  0  0  0  0  0  0  0  0  0  0
   -0.0871    0.2769    0.0093 C   0  0  0  0  0  0  0  0  0  0  0  0
   -1.0121    1.3102    0.2254 C   0  0  0  0  0  0  0  0  0  0  0  0
   -2.3844    1.0690    0.1096 C   0  0  0  0  0  0  0  0  0  0  0  0
   -2.8492   -0.2109   -0.2074 C   0  0  0  0  0  0  0  0  0  0  0  0
   -4.2191   -0.4373   -0.3203 O   0  0  0  0  0  0  0  0  0  0  0  0
   -1.9339   -1.2534   -0.4030 C   0  0  0  0  0  0  0  0  0  0  0  0
   -0.5608   -1.0142   -0.2887 C   0  0  0  0  0  0  0  0  0  0  0  0
    4.4067   -0.7250   -0.6428 H   0  0  0  0  0  0  0  0  0  0  0  0
    3.8929    0.1128    0.8703 H   0  0  0  0  0  0  0  0  0  0  0  0
    4.1346    1.0642   -0.6503 H   0  0  0  0  0  0  0  0  0  0  0  0
    1.6046    1.3241    0.7943 H   0  0  0  0  0  0  0  0  0  0  0  0
   -0.6674    2.3062    0.4739 H   0  0  0  0  0  0  0  0  0  0  0  0
   -3.0872    1.8769    0.2686 H   0  0  0  0  0  0  0  0  0  0  0  0
   -4.5873   -1.3537   -0.5473 H   0  0  0  0  0  0  0  0  0  0  0  0
   -2.2855   -2.2508   -0.6344 H   0  0  0  0  0  0  0  0  0  0  0  0
    0.1240   -1.8430   -0.4076 H   0  0  0  0  0  0  0  0  0  0  0  0
  1  2  1  0
  2  3  2  0
  2  4  1  0
  4  5  1  0
  5  6  2  0
  6  7  1  0
  7  8  2  0
  8  9  1  0
  8 10  1  0
 10 11  2  0
 11  5  1  0
  1 12  1  0
  1 13  1  0
  1 14  1  0
  4 15  1  0
  6 16  1  0
  7 17  1  0
  9 18  1  0
 10 19  1  0
 11 20  1  0
M  END
$$$$
