
     RDKit          3D

 22 22  0  0  0  0  0  0  0  0999 V2000
    3.4698    0.0408   -0.4525 O   0  0  0  0  0  0  0  0  0  0  0  0
    2.8984    0.1692    0.6628 C   0  0  0  0  0  0  0  0  0  0  0  0
    1.5065    0.4950    0.7448 N   0  0  0  0  0  0  0  0  0  0  0  0
    0.6683    0.6831   -0.4469 C   0  0  0  0  0  0  0  0  0  0  0  0
   -0.6398    1.4253   -0.0974 C   0  0  0  0  0  0  0  0  0  0  0  0
   -1.6114    0.5553    0.7162 C   0  0  0  0  0  0  0  0  0  0  0  0
   -1.8890   -0.7770    0.0121 C   0  0  0  0  0  0  0  0  0  0  0  0
   -0.5848   -1.5270   -0.2765 C   0  0  0  0  0  0  0  0  0  0  0  0
    0.3626   -0.6685   -1.1237 C   0  0  0  0  0  0  0  0  0  0  0  0
    3.4719    0.0393    1.5709 H   0  0  0  0  0  0  0  0  0  0  0  0
    1.1150    0.6705    1.6971 H   0  0  0  0  0  0  0  0  0  0  0  0
    1.2242    1.3197   -1.1706 H   0  0  0  0  0  0  0  0  0  0  0  0
   -1.1412    1.7385   -1.0398 H   0  0  0  0  0  0  0  0  0  0  0  0
   -0.4045    2.3489    0.4748 H   0  0  0  0  0  0  0  0  0  0  0  0
   -2.5689    1.1042    0.8457 H   0  0  0  0  0  0  0  0  0  0  0  0
   -1.1986    0.3618    1.7293 H   0  0  0  0  0  0  0  0  0  0  0  0
   -2.4324   -0.5905   -0.9403 H   0  0  0  0  0  0  0  0  0  0  0  0
   -2.5381   -1.4053    0.6592 H   0  0  0  0  0  0  0  0  0  0  0  0
   -0.0899   -1.8044    0.6801 H   0  0  0  0  0  0  0  0  0  0  0  0
   -0.8169   -2.4652   -0.8250 H   0  0  0  0  0  0  0  0  0  0  0  0
   -0.1040   -0.4824   -2.1163 H   0  0  0  0  0  0  0  0  0  0  0  0
    1.3030   -1.2310   -1.3039 H   0  0  0  0  0  0  0  0  0  0  0  0
  1  2  2  0
  2  3  1  0
  3  4  1  0
  4  5  1  0
  5  6  1  0
  6  7  1  0
  7  8  1  0
  8  9  1  0
  9  4  1  0
  2 10  1  0
  3 11  1  0
  4 12  1  0
  5 13  1  0
  5 14  1  0
  6 15  1  0
  6 16  1  0
  7 17  1  0
  7 18  1  0
  8 19  1  0
  8 20  1  0
  9 21  1  0
  9 22  1  0
M  END
$$$$
