
     RDKit          3D

 35 35  0  0  0  0  0  0  0  0999 V2000
   -5.3231    0.7521   -0.5377 C   0  0  0  0  0  0  0  0  0  0  0  0
   -4.0063    0.1571   -0.9167 C   0  0  0  0  0  0  0  0  0  0  0  0
   -3.8370   -0.2873   -2.0843 O   0  0  0  0  0  0  0  0  0  0  0  0
   -2.9576    0.0632    0.0572 N   0  0  0  0  0  0  0  0  0  0  0  0
   -1.6320   -0.4785   -0.2647 C   0  0  1  0  0  0  0  0  0  0  0  0
   -0.8070    0.5598   -1.0705 C   0  0  0  0  0  0  0  0  0  0  0  0
   -0.8327    1.8605   -0.5260 O   0  0  0  0  0  0  0  0  0  0  0  0
    0.5224    0.1250   -1.3054 O   0  0  0  0  0  0  0  0  0  0  0  0
    1.2287   -0.1207   -0.1002 C   0  0  2  0  0  0  0  0  0  0  0  0
    2.6838   -0.4583   -0.4751 C   0  0  0  0  0  0  0  0  0  0  0  0
    3.5013   -0.5414    0.6760 O   0  0  0  0  0  0  0  0  0  0  0  0
    4.4047    0.8968    0.8594 P   0  0  0  0  0  5  0  0  0  0  0  0
    5.3137    0.7928    2.2826 O   0  0  0  0  0  0  0  0  0  0  0  0
    5.4528    1.0903   -0.4557 O   0  0  0  0  0  0  0  0  0  0  0  0
    3.4817    2.0917    0.9479 O   0  0  0  0  0  0  0  0  0  0  0  0
    0.5670   -1.2748    0.6900 C   0  0  1  0  0  0  0  0  0  0  0  0
    1.2682   -1.4996    1.8869 O   0  0  0  0  0  0  0  0  0  0  0  0
   -0.8909   -0.9157    1.0162 C   0  0  2  0  0  0  0  0  0  0  0  0
   -1.5256   -2.0395    1.5723 O   0  0  0  0  0  0  0  0  0  0  0  0
   -5.8582    0.0602    0.1453 H   0  0  0  0  0  0  0  0  0  0  0  0
   -5.9470    0.9265   -1.4401 H   0  0  0  0  0  0  0  0  0  0  0  0
   -5.1611    1.7220   -0.0226 H   0  0  0  0  0  0  0  0  0  0  0  0
   -3.1554    0.3987    1.0276 H   0  0  0  0  0  0  0  0  0  0  0  0
   -1.7571   -1.3859   -0.8987 H   0  0  0  0  0  0  0  0  0  0  0  0
   -1.2879    0.6345   -2.0683 H   0  0  0  0  0  0  0  0  0  0  0  0
   -0.7869    1.7978    0.4611 H   0  0  0  0  0  0  0  0  0  0  0  0
    1.2545    0.7966    0.5277 H   0  0  0  0  0  0  0  0  0  0  0  0
    2.7030   -1.4478   -0.9801 H   0  0  0  0  0  0  0  0  0  0  0  0
    3.0528    0.2648   -1.2403 H   0  0  0  0  0  0  0  0  0  0  0  0
    5.8733    1.6101    2.2853 H   0  0  0  0  0  0  0  0  0  0  0  0
    5.9958    0.2621   -0.4675 H   0  0  0  0  0  0  0  0  0  0  0  0
    0.5852   -2.1935    0.0553 H   0  0  0  0  0  0  0  0  0  0  0  0
    1.0656   -2.4291    2.1707 H   0  0  0  0  0  0  0  0  0  0  0  0
   -0.8850   -0.0831    1.7591 H   0  0  0  0  0  0  0  0  0  0  0  0
   -2.3037   -1.7070    2.0913 H   0  0  0  0  0  0  0  0  0  0  0  0
  1  2  1  0
  2  3  2  0
  2  4  1  0
  4  5  1  0
  5  6  1  0
  6  7  1  0
  6  8  1  0
  8  9  1  0
  9 10  1  0
 10 11  1  0
 11 12  1  0
 12 13  1  0
 12 14  1  0
 12 15  2  0
  9 16  1  0
 16 17  1  0
 16 18  1  0
 18 19  1  0
 18  5  1  0
  1 20  1  0
  1 21  1  0
  1 22  1  0
  4 23  1  0
  5 24  1  6
  6 25  1  0
  7 26  1  0
  9 27  1  1
 10 28  1  0
 10 29  1  0
 13 30  1  0
 14 31  1  0
 16 32  1  6
 17 33  1  0
 18 34  1  1
 19 35  1  0
M  END
$$$$
