
     RDKit          3D

 17 17  0  0  0  0  0  0  0  0999 V2000
    1.8589    1.0293    0.1769 N   0  0  0  0  0  0  0  0  0  0  0  0
    1.6946   -0.4188    0.2727 C   0  0  0  0  0  0  0  0  0  0  0  0
    0.5515   -0.8976   -0.6261 C   0  0  0  0  0  0  0  0  0  0  0  0
   -0.7649   -0.3373   -0.1775 C   0  0  0  0  0  0  0  0  0  0  0  0
   -1.3747    0.8015   -0.6598 C   0  0  0  0  0  0  0  0  0  0  0  0
   -2.5151    0.9275    0.1096 C   0  0  0  0  0  0  0  0  0  0  0  0
   -2.5711   -0.0777    1.0064 N   0  0  0  0  0  0  0  0  0  0  0  0
   -1.5034   -0.8382    0.8279 N   0  0  0  0  0  0  0  0  0  0  0  0
    2.2212    1.2551   -0.7782 H   0  0  0  0  0  0  0  0  0  0  0  0
    2.6061    1.3099    0.8524 H   0  0  0  0  0  0  0  0  0  0  0  0
    1.4815   -0.7000    1.3277 H   0  0  0  0  0  0  0  0  0  0  0  0
    2.6374   -0.9243   -0.0341 H   0  0  0  0  0  0  0  0  0  0  0  0
    0.5018   -2.0070   -0.5898 H   0  0  0  0  0  0  0  0  0  0  0  0
    0.7494   -0.6029   -1.6796 H   0  0  0  0  0  0  0  0  0  0  0  0
   -1.0336    1.4552   -1.4515 H   0  0  0  0  0  0  0  0  0  0  0  0
   -3.2562    1.7109    0.0260 H   0  0  0  0  0  0  0  0  0  0  0  0
   -1.2834   -1.6855    1.3970 H   0  0  0  0  0  0  0  0  0  0  0  0
  1  2  1  0
  2  3  1  0
  3  4  1  0
  4  5  2  0
  5  6  1  0
  6  7  2  0
  7  8  1  0
  8  4  1  0
  1  9  1  0
  1 10  1  0
  2 11  1  0
  2 12  1  0
  3 13  1  0
  3 14  1  0
  5 15  1  0
  6 16  1  0
  8 17  1  0
M  END
$$$$
