
     RDKit          3D

 39 41  0  0  0  0  0  0  0  0999 V2000
    4.5242   -0.8883   -0.3521 C   0  0  0  0  0  0  0  0  0  0  0  0
    3.0077   -0.8422   -0.1864 C   0  0  0  0  0  0  0  0  0  0  0  0
    2.4074    0.3586   -0.9272 C   0  0  0  0  0  0  0  0  0  0  0  0
    0.8612    0.3804   -0.9566 C   0  0  0  0  0  0  0  0  0  0  0  0
    0.1087    0.5609    0.4074 C   0  0  2  0  0  0  0  0  0  0  0  0
   -0.0614   -0.8069    1.1420 C   0  0  0  0  0  0  0  0  0  0  0  0
   -1.4550   -1.2235    0.8211 C   0  0  0  0  0  0  0  0  0  0  0  0
   -2.0102   -2.4843    1.0517 C   0  0  0  0  0  0  0  0  0  0  0  0
   -3.3194   -2.7393    0.6191 C   0  0  0  0  0  0  0  0  0  0  0  0
   -3.8857   -3.9918    0.8442 O   0  0  0  0  0  0  0  0  0  0  0  0
   -4.0440   -1.7343   -0.0508 C   0  0  0  0  0  0  0  0  0  0  0  0
   -3.4695   -0.4736   -0.2723 C   0  0  0  0  0  0  0  0  0  0  0  0
   -2.1766   -0.2235    0.2109 C   0  0  0  0  0  0  0  0  0  0  0  0
   -1.3279    0.9659    0.1069 C   0  0  0  0  0  0  0  0  0  0  0  0
   -1.7121    2.2577   -0.0124 C   0  0  0  0  0  0  0  0  0  0  0  0
   -3.5400    2.8119   -0.2161 Br  0  0  0  0  0  0  0  0  0  0  0  0
   -0.7117    3.3328    0.1795 C   0  0  0  0  0  0  0  0  0  0  0  0
   -1.0151    4.5255   -0.0904 O   0  0  0  0  0  0  0  0  0  0  0  0
    0.6728    3.0319    0.6864 C   0  0  0  0  0  0  0  0  0  0  0  0
    0.7466    1.6360    1.3257 C   0  0  0  0  0  0  0  0  0  0  0  0
    4.9846    0.0392    0.0504 H   0  0  0  0  0  0  0  0  0  0  0  0
    4.9327   -1.7579    0.2046 H   0  0  0  0  0  0  0  0  0  0  0  0
    4.7933   -0.9963   -1.4245 H   0  0  0  0  0  0  0  0  0  0  0  0
    2.7835   -0.7682    0.8983 H   0  0  0  0  0  0  0  0  0  0  0  0
    2.5781   -1.7857   -0.5874 H   0  0  0  0  0  0  0  0  0  0  0  0
    2.7533    0.3231   -1.9838 H   0  0  0  0  0  0  0  0  0  0  0  0
    2.8087    1.3005   -0.5013 H   0  0  0  0  0  0  0  0  0  0  0  0
    0.5000   -0.5426   -1.4625 H   0  0  0  0  0  0  0  0  0  0  0  0
    0.5768    1.2178   -1.6321 H   0  0  0  0  0  0  0  0  0  0  0  0
    0.0384   -0.7053    2.2443 H   0  0  0  0  0  0  0  0  0  0  0  0
    0.6362   -1.5894    0.7875 H   0  0  0  0  0  0  0  0  0  0  0  0
   -1.4325   -3.2575    1.5423 H   0  0  0  0  0  0  0  0  0  0  0  0
   -4.8275   -4.2089    0.5400 H   0  0  0  0  0  0  0  0  0  0  0  0
   -5.0439   -1.9358   -0.4135 H   0  0  0  0  0  0  0  0  0  0  0  0
   -4.0197    0.2538   -0.8455 H   0  0  0  0  0  0  0  0  0  0  0  0
    0.9611    3.7911    1.4449 H   0  0  0  0  0  0  0  0  0  0  0  0
    1.3866    3.1119   -0.1589 H   0  0  0  0  0  0  0  0  0  0  0  0
    1.7979    1.3842    1.5752 H   0  0  0  0  0  0  0  0  0  0  0  0
    0.1926    1.6719    2.2908 H   0  0  0  0  0  0  0  0  0  0  0  0
  1  2  1  0
  2  3  1  0
  3  4  1  0
  5  4  1  6
  5  6  1  0
  6  7  1  0
  7  8  2  0
  8  9  1  0
  9 10  1  0
  9 11  2  0
 11 12  1  0
 12 13  2  0
 13 14  1  0
 14 15  2  0
 15 16  1  0
 15 17  1  0
 17 18  2  0
 17 19  1  0
 19 20  1  0
 14  5  1  0
 20  5  1  0
 13  7  1  0
  1 21  1  0
  1 22  1  0
  1 23  1  0
  2 24  1  0
  2 25  1  0
  3 26  1  0
  3 27  1  0
  4 28  1  0
  4 29  1  0
  6 30  1  0
  6 31  1  0
  8 32  1  0
 10 33  1  0
 11 34  1  0
 12 35  1  0
 19 36  1  0
 19 37  1  0
 20 38  1  0
 20 39  1  0
M  END
$$$$
