
     RDKit          3D

 51 52  0  0  0  0  0  0  0  0999 V2000
    7.5749   -0.8881   -0.2227 N   0  0  0  0  0  0  0  0  0  0  0  0
    6.8482   -0.9620    1.0106 C   0  0  0  0  0  0  0  0  0  0  0  0
    7.4408   -1.6236    2.1280 N   0  0  0  0  0  0  0  0  0  0  0  0
    5.6354   -0.4990    1.1232 N   0  0  0  0  0  0  0  0  0  0  0  0
    4.9112    0.2641    0.1466 C   0  0  0  0  0  0  0  0  0  0  0  0
    5.4966    1.3642   -0.5012 C   0  0  0  0  0  0  0  0  0  0  0  0
    4.7535    2.1221   -1.4078 C   0  0  0  0  0  0  0  0  0  0  0  0
    3.4165    1.8054   -1.6579 C   0  0  0  0  0  0  0  0  0  0  0  0
    2.8013    0.7295   -0.9897 C   0  0  0  0  0  0  0  0  0  0  0  0
    3.5604   -0.0288   -0.0790 C   0  0  0  0  0  0  0  0  0  0  0  0
    1.3456    0.3825   -1.2392 C   0  0  0  0  0  0  0  0  0  0  0  0
    0.4250    1.5722   -0.8901 C   0  0  0  0  0  0  0  0  0  0  0  0
   -1.3453    1.1151   -0.8440 P   0  0  0  0  0  5  0  0  0  0  0  0
   -2.2392    2.5336   -0.6155 O   0  0  0  0  0  0  0  0  0  0  0  0
   -1.7499    0.4860   -2.1581 O   0  0  0  0  0  0  0  0  0  0  0  0
   -1.6690   -0.0501    0.5283 C   0  0  0  0  0  0  0  0  0  0  0  0
   -3.0872   -0.6366    0.4875 C   0  0  0  0  0  0  0  0  0  0  0  0
   -4.1653    0.3747    0.8997 C   0  0  0  0  0  0  0  0  0  0  0  0
   -5.5064   -0.3005    1.0084 C   0  0  0  0  0  0  0  0  0  0  0  0
   -5.9258   -0.8530    2.2303 C   0  0  0  0  0  0  0  0  0  0  0  0
   -7.1578   -1.5085    2.3206 C   0  0  0  0  0  0  0  0  0  0  0  0
   -7.9737   -1.6254    1.1919 C   0  0  0  0  0  0  0  0  0  0  0  0
   -7.5571   -1.0907   -0.0304 C   0  0  0  0  0  0  0  0  0  0  0  0
   -6.3259   -0.4345   -0.1252 C   0  0  0  0  0  0  0  0  0  0  0  0
    1.1657   -0.0903   -2.6580 C   0  0  0  0  0  0  0  0  0  0  0  0
    1.0621   -1.4530   -2.9195 O   0  0  0  0  0  0  0  0  0  0  0  0
    1.1380    0.7331   -3.6127 O   0  0  0  0  0  0  0  0  0  0  0  0
    8.5711   -1.1978   -0.2582 H   0  0  0  0  0  0  0  0  0  0  0  0
    7.1117   -0.6445   -1.1252 H   0  0  0  0  0  0  0  0  0  0  0  0
    6.9216   -1.7106    3.0300 H   0  0  0  0  0  0  0  0  0  0  0  0
    8.4009   -2.0276    2.0577 H   0  0  0  0  0  0  0  0  0  0  0  0
    6.5219    1.6428   -0.2939 H   0  0  0  0  0  0  0  0  0  0  0  0
    5.2123    2.9630   -1.9116 H   0  0  0  0  0  0  0  0  0  0  0  0
    2.8604    2.4069   -2.3650 H   0  0  0  0  0  0  0  0  0  0  0  0
    3.1067   -0.8571    0.4519 H   0  0  0  0  0  0  0  0  0  0  0  0
    1.0661   -0.4608   -0.5730 H   0  0  0  0  0  0  0  0  0  0  0  0
    0.6953    1.9658    0.1134 H   0  0  0  0  0  0  0  0  0  0  0  0
    0.5553    2.3969   -1.6223 H   0  0  0  0  0  0  0  0  0  0  0  0
   -1.9584    2.8699    0.2728 H   0  0  0  0  0  0  0  0  0  0  0  0
   -1.4857    0.4611    1.4971 H   0  0  0  0  0  0  0  0  0  0  0  0
   -0.9506   -0.8911    0.4496 H   0  0  0  0  0  0  0  0  0  0  0  0
   -3.1181   -1.4958    1.1934 H   0  0  0  0  0  0  0  0  0  0  0  0
   -3.3057   -1.0327   -0.5282 H   0  0  0  0  0  0  0  0  0  0  0  0
   -3.8973    0.8382    1.8746 H   0  0  0  0  0  0  0  0  0  0  0  0
   -4.2305    1.1895    0.1497 H   0  0  0  0  0  0  0  0  0  0  0  0
   -5.2989   -0.7775    3.1102 H   0  0  0  0  0  0  0  0  0  0  0  0
   -7.4785   -1.9289    3.2650 H   0  0  0  0  0  0  0  0  0  0  0  0
   -8.9263   -2.1342    1.2632 H   0  0  0  0  0  0  0  0  0  0  0  0
   -8.1867   -1.1878   -0.9054 H   0  0  0  0  0  0  0  0  0  0  0  0
   -6.0103   -0.0326   -1.0801 H   0  0  0  0  0  0  0  0  0  0  0  0
    0.9506   -1.7931   -3.8672 H   0  0  0  0  0  0  0  0  0  0  0  0
  1  2  1  0
  2  3  1  0
  2  4  2  3
  4  5  1  0
  5  6  2  0
  6  7  1  0
  7  8  2  0
  8  9  1  0
  9 10  2  0
  9 11  1  0
 11 12  1  0
 12 13  1  0
 13 14  1  0
 13 15  2  0
 13 16  1  0
 16 17  1  0
 17 18  1  0
 18 19  1  0
 19 20  2  0
 20 21  1  0
 21 22  2  0
 22 23  1  0
 23 24  2  0
 11 25  1  0
 25 26  1  0
 25 27  2  0
 10  5  1  0
 24 19  1  0
  1 28  1  0
  1 29  1  0
  3 30  1  0
  3 31  1  0
  6 32  1  0
  7 33  1  0
  8 34  1  0
 10 35  1  0
 11 36  1  0
 12 37  1  0
 12 38  1  0
 14 39  1  0
 16 40  1  0
 16 41  1  0
 17 42  1  0
 17 43  1  0
 18 44  1  0
 18 45  1  0
 20 46  1  0
 21 47  1  0
 22 48  1  0
 23 49  1  0
 24 50  1  0
 26 51  1  0
M  END
$$$$
