
     RDKit          3D

 36 38  0  0  0  0  0  0  0  0999 V2000
   -2.3274    2.9536    2.5270 C   0  0  0  0  0  0  0  0  0  0  0  0
   -2.2010    1.8110    1.6872 O   0  0  0  0  0  0  0  0  0  0  0  0
   -0.9859    1.3251    1.1791 C   0  0  0  0  0  0  0  0  0  0  0  0
    0.2440    1.9370    1.4851 C   0  0  0  0  0  0  0  0  0  0  0  0
    1.4394    1.4128    0.9900 C   0  0  0  0  0  0  0  0  0  0  0  0
    1.4345    0.2679    0.1777 C   0  0  0  0  0  0  0  0  0  0  0  0
    0.2062   -0.3390   -0.1333 C   0  0  0  0  0  0  0  0  0  0  0  0
   -0.9998    0.1829    0.3575 C   0  0  0  0  0  0  0  0  0  0  0  0
   -2.2402   -0.4512    0.0151 N   0  0  0  0  0  0  0  0  0  0  0  0
   -3.3197    0.1958   -0.7373 C   0  0  0  0  0  0  0  0  0  0  0  0
   -4.3763   -0.8571   -0.9810 C   0  0  0  0  0  0  0  0  0  0  0  0
   -5.4390   -0.6069   -1.6078 O   0  0  0  0  0  0  0  0  0  0  0  0
   -4.1071   -2.1562   -0.4622 N   0  0  0  0  0  0  0  0  0  0  0  0
   -2.5817   -2.1126    0.3002 S   0  0  0  0  0  6  0  0  0  0  0  0
   -2.6922   -2.4076    1.7691 O   0  0  0  0  0  0  0  0  0  0  0  0
   -1.6042   -3.0207   -0.3905 O   0  0  0  0  0  0  0  0  0  0  0  0
    2.7063   -0.2912   -0.3481 C   0  0  0  0  0  0  0  0  0  0  0  0
    3.7254    0.5614   -0.8139 C   0  0  0  0  0  0  0  0  0  0  0  0
    4.9210    0.0315   -1.3090 C   0  0  0  0  0  0  0  0  0  0  0  0
    5.1135   -1.3513   -1.3441 C   0  0  0  0  0  0  0  0  0  0  0  0
    4.1105   -2.2076   -0.8846 C   0  0  0  0  0  0  0  0  0  0  0  0
    2.9126   -1.6834   -0.3893 C   0  0  0  0  0  0  0  0  0  0  0  0
   -3.3987    3.1072    2.7702 H   0  0  0  0  0  0  0  0  0  0  0  0
   -1.9490    3.8565    2.0028 H   0  0  0  0  0  0  0  0  0  0  0  0
   -1.7673    2.7962    3.4729 H   0  0  0  0  0  0  0  0  0  0  0  0
    0.2891    2.8143    2.1156 H   0  0  0  0  0  0  0  0  0  0  0  0
    2.3715    1.8934    1.2600 H   0  0  0  0  0  0  0  0  0  0  0  0
    0.1825   -1.1976   -0.7909 H   0  0  0  0  0  0  0  0  0  0  0  0
   -2.9310    0.5720   -1.7072 H   0  0  0  0  0  0  0  0  0  0  0  0
   -3.7570    1.0304   -0.1525 H   0  0  0  0  0  0  0  0  0  0  0  0
   -4.7251   -2.9929   -0.5486 H   0  0  0  0  0  0  0  0  0  0  0  0
    3.5910    1.6358   -0.8120 H   0  0  0  0  0  0  0  0  0  0  0  0
    5.6975    0.6940   -1.6689 H   0  0  0  0  0  0  0  0  0  0  0  0
    6.0398   -1.7592   -1.7275 H   0  0  0  0  0  0  0  0  0  0  0  0
    4.2623   -3.2790   -0.9090 H   0  0  0  0  0  0  0  0  0  0  0  0
    2.1555   -2.3654   -0.0228 H   0  0  0  0  0  0  0  0  0  0  0  0
  1  2  1  0
  2  3  1  0
  3  4  2  0
  4  5  1  0
  5  6  2  0
  6  7  1  0
  7  8  2  0
  8  9  1  0
  9 10  1  0
 10 11  1  0
 11 12  2  0
 11 13  1  0
 13 14  1  0
 14 15  2  0
 14 16  2  0
  6 17  1  0
 17 18  2  0
 18 19  1  0
 19 20  2  0
 20 21  1  0
 21 22  2  0
  8  3  1  0
 14  9  1  0
 22 17  1  0
  1 23  1  0
  1 24  1  0
  1 25  1  0
  4 26  1  0
  5 27  1  0
  7 28  1  0
 10 29  1  0
 10 30  1  0
 13 31  1  0
 18 32  1  0
 19 33  1  0
 20 34  1  0
 21 35  1  0
 22 36  1  0
M  END
$$$$
