
     RDKit          3D

 59 62  0  0  0  0  0  0  0  0999 V2000
    0.6474   -1.0566   -1.0744 C   0  0  2  0  0  0  0  0  0  0  0  0
    1.1227   -2.3330   -1.7592 C   0  0  0  0  0  0  0  0  0  0  0  0
    2.3865   -2.7487   -0.9862 C   0  0  0  0  0  0  0  0  0  0  0  0
    2.5614   -1.7341    0.1877 C   0  0  2  0  0  0  0  0  0  0  0  0
    3.3896   -0.6819   -0.2592 O   0  0  0  0  0  0  0  0  0  0  0  0
    3.1807   -2.3599    1.4482 C   0  0  0  0  0  0  0  0  0  0  0  0
    3.3880   -3.5638    1.4950 O   0  0  0  0  0  0  0  0  0  0  0  0
    3.5010   -1.5440    2.6763 C   0  0  0  0  0  0  0  0  0  0  0  0
    3.8889   -0.2202    2.3248 O   0  0  0  0  0  0  0  0  0  0  0  0
    4.1660    0.7649    3.2754 C   0  0  0  0  0  0  0  0  0  0  0  0
    4.4996    2.1451    2.8228 C   0  0  0  0  0  0  0  0  0  0  0  0
    4.0877    0.5118    4.5084 O   0  0  0  0  0  0  0  0  0  0  0  0
    1.1084   -1.2001    0.3912 C   0  0  2  0  0  0  0  0  0  0  0  0
    0.2495   -2.2339    1.1958 C   0  0  0  0  0  0  0  0  0  0  0  0
    0.9798    0.1877    1.0647 C   0  0  0  0  0  0  0  0  0  0  0  0
   -0.4351    0.7033    0.8991 C   0  0  0  0  0  0  0  0  0  0  0  0
   -1.0158    1.1443    1.8779 O   0  0  0  0  0  0  0  0  0  0  0  0
   -1.0783    0.7069   -0.4950 C   0  0  1  0  0  0  0  0  0  0  0  0
   -0.8455   -0.6681   -1.2067 C   0  0  1  0  0  0  0  0  0  0  0  0
   -1.2601   -0.5603   -2.6826 C   0  0  0  0  0  0  0  0  0  0  0  0
   -2.7410   -0.2125   -2.8005 C   0  0  0  0  0  0  0  0  0  0  0  0
   -3.0728    1.0444   -2.0291 C   0  0  0  0  0  0  0  0  0  0  0  0
   -3.9581    1.9048   -2.5666 C   0  0  0  0  0  0  0  0  0  0  0  0
   -4.4382    3.0876   -1.8407 C   0  0  0  0  0  0  0  0  0  0  0  0
   -5.2536    3.8705   -2.3962 O   0  0  0  0  0  0  0  0  0  0  0  0
   -4.0173    3.3362   -0.4291 C   0  0  0  0  0  0  0  0  0  0  0  0
   -2.6537    2.6963   -0.1539 C   0  0  0  0  0  0  0  0  0  0  0  0
   -2.5810    1.1912   -0.5778 C   0  0  2  0  0  0  0  0  0  0  0  0
   -3.5106    0.3409    0.3271 C   0  0  0  0  0  0  0  0  0  0  0  0
    1.2278   -0.2266   -1.5469 H   0  0  0  0  0  0  0  0  0  0  0  0
    0.3460   -3.1263   -1.6923 H   0  0  0  0  0  0  0  0  0  0  0  0
    1.3563   -2.1453   -2.8301 H   0  0  0  0  0  0  0  0  0  0  0  0
    3.2721   -2.7497   -1.6587 H   0  0  0  0  0  0  0  0  0  0  0  0
    2.2413   -3.7886   -0.6222 H   0  0  0  0  0  0  0  0  0  0  0  0
    4.2994   -1.0520   -0.4101 H   0  0  0  0  0  0  0  0  0  0  0  0
    2.6098   -1.5155    3.3378 H   0  0  0  0  0  0  0  0  0  0  0  0
    4.3339   -2.0258    3.2338 H   0  0  0  0  0  0  0  0  0  0  0  0
    4.9514    2.1115    1.8092 H   0  0  0  0  0  0  0  0  0  0  0  0
    3.5734    2.7555    2.7879 H   0  0  0  0  0  0  0  0  0  0  0  0
    5.2230    2.6135    3.5232 H   0  0  0  0  0  0  0  0  0  0  0  0
    0.6449   -2.3580    2.2241 H   0  0  0  0  0  0  0  0  0  0  0  0
    0.2401   -3.2329    0.7144 H   0  0  0  0  0  0  0  0  0  0  0  0
   -0.8020   -1.9056    1.3180 H   0  0  0  0  0  0  0  0  0  0  0  0
    1.2312    0.1192    2.1441 H   0  0  0  0  0  0  0  0  0  0  0  0
    1.6718    0.9237    0.6027 H   0  0  0  0  0  0  0  0  0  0  0  0
   -0.4825    1.4510   -1.0722 H   0  0  0  0  0  0  0  0  0  0  0  0
   -1.4651   -1.4634   -0.7476 H   0  0  0  0  0  0  0  0  0  0  0  0
   -0.6526    0.2149   -3.2006 H   0  0  0  0  0  0  0  0  0  0  0  0
   -1.0902   -1.5297   -3.1984 H   0  0  0  0  0  0  0  0  0  0  0  0
   -2.9825   -0.1018   -3.8808 H   0  0  0  0  0  0  0  0  0  0  0  0
   -3.3546   -1.0509   -2.4056 H   0  0  0  0  0  0  0  0  0  0  0  0
   -4.3426    1.7373   -3.5661 H   0  0  0  0  0  0  0  0  0  0  0  0
   -3.9478    4.4309   -0.2481 H   0  0  0  0  0  0  0  0  0  0  0  0
   -4.7840    2.9251    0.2608 H   0  0  0  0  0  0  0  0  0  0  0  0
   -1.8858    3.2781   -0.7112 H   0  0  0  0  0  0  0  0  0  0  0  0
   -2.4382    2.8265    0.9252 H   0  0  0  0  0  0  0  0  0  0  0  0
   -4.5772    0.5732    0.1227 H   0  0  0  0  0  0  0  0  0  0  0  0
   -3.3796   -0.7440    0.1464 H   0  0  0  0  0  0  0  0  0  0  0  0
   -3.3339    0.5368    1.4031 H   0  0  0  0  0  0  0  0  0  0  0  0
  1  2  1  0
  2  3  1  0
  3  4  1  0
  4  5  1  6
  4  6  1  0
  6  7  2  0
  6  8  1  0
  8  9  1  0
  9 10  1  0
 10 11  1  0
 10 12  2  0
  4 13  1  0
 13 14  1  1
 13 15  1  0
 15 16  1  0
 16 17  2  0
 16 18  1  0
 18 19  1  0
 19 20  1  0
 20 21  1  0
 21 22  1  0
 22 23  2  0
 23 24  1  0
 24 25  2  0
 24 26  1  0
 26 27  1  0
 27 28  1  0
 28 29  1  1
 13  1  1  0
 28 18  1  0
 19  1  1  0
 28 22  1  0
  1 30  1  6
  2 31  1  0
  2 32  1  0
  3 33  1  0
  3 34  1  0
  5 35  1  0
  8 36  1  0
  8 37  1  0
 11 38  1  0
 11 39  1  0
 11 40  1  0
 14 41  1  0
 14 42  1  0
 14 43  1  0
 15 44  1  0
 15 45  1  0
 18 46  1  6
 19 47  1  1
 20 48  1  0
 20 49  1  0
 21 50  1  0
 21 51  1  0
 23 52  1  0
 26 53  1  0
 26 54  1  0
 27 55  1  0
 27 56  1  0
 29 57  1  0
 29 58  1  0
 29 59  1  0
M  END
$$$$
