
     RDKit          3D

 84 86  0  0  0  0  0  0  0  0999 V2000
    5.9924    0.7007   -1.1467 C   0  0  2  0  0  0  0  0  0  0  0  0
    7.0284    1.2325   -0.3613 O   0  0  0  0  0  0  0  0  0  0  0  0
    4.8964    1.6101   -1.1710 O   0  0  0  0  0  0  0  0  0  0  0  0
    3.9866    1.4625   -0.0881 C   0  0  2  0  0  0  0  0  0  0  0  0
    4.6144    1.8778    1.2585 C   0  0  0  0  0  0  0  0  0  0  0  0
    3.6074    2.0738    2.2131 O   0  0  0  0  0  0  0  0  0  0  0  0
    3.3135    0.0562   -0.0550 C   0  0  1  0  0  0  0  0  0  0  0  0
    2.0101    0.1641   -0.6095 O   0  0  0  0  0  0  0  0  0  0  0  0
    1.0441   -0.6057    0.0910 C   0  0  2  0  0  0  0  0  0  0  0  0
    0.0335   -1.0530   -0.8016 O   0  0  0  0  0  0  0  0  0  0  0  0
   -0.7761   -0.0135   -1.3439 C   0  0  2  0  0  0  0  0  0  0  0  0
   -0.0851    0.7681   -2.4792 C   0  0  0  0  0  0  0  0  0  0  0  0
    0.5533   -0.1243   -3.3504 O   0  0  0  0  0  0  0  0  0  0  0  0
   -1.4250    0.8939   -0.2652 C   0  0  1  0  0  0  0  0  0  0  0  0
   -2.4407    0.1615    0.4080 O   0  0  0  0  0  0  0  0  0  0  0  0
   -3.7327    0.4768   -0.0762 C   0  0  2  0  0  0  0  0  0  0  0  0
   -4.0765    1.7876    0.3588 O   0  0  0  0  0  0  0  0  0  0  0  0
   -5.4359    2.0625    0.0806 C   0  0  2  0  0  0  0  0  0  0  0  0
   -5.6642    3.5733    0.1960 C   0  0  0  0  0  0  0  0  0  0  0  0
   -6.9887    3.8880   -0.1359 O   0  0  0  0  0  0  0  0  0  0  0  0
   -6.3447    1.2710    1.0582 C   0  0  1  0  0  0  0  0  0  0  0  0
   -7.5448    0.9435    0.4042 O   0  0  0  0  0  0  0  0  0  0  0  0
   -5.6385   -0.0192    1.5515 C   0  0  2  0  0  0  0  0  0  0  0  0
   -4.8583    0.2656    2.6862 O   0  0  0  0  0  0  0  0  0  0  0  0
   -4.7270   -0.6050    0.4579 C   0  0  1  0  0  0  0  0  0  0  0  0
   -5.5611   -1.1248   -0.6299 N   0  0  0  0  0  0  0  0  0  0  0  0
   -5.1774   -1.9388   -1.5713 C   0  0  0  0  0  0  0  0  0  0  0  0
   -6.1638   -2.3574   -2.6086 C   0  0  0  0  0  0  0  0  0  0  0  0
   -3.8770   -2.4470   -1.6335 O   0  0  0  0  0  0  0  0  0  0  0  0
   -0.3985    1.3608    0.7813 C   0  0  2  0  0  0  0  0  0  0  0  0
    0.4214    2.3637    0.2373 O   0  0  0  0  0  0  0  0  0  0  0  0
    0.4497    0.1801    1.2848 C   0  0  1  0  0  0  0  0  0  0  0  0
   -0.3927   -0.6989    2.1018 N   0  0  0  0  0  0  0  0  0  0  0  0
    0.0065   -1.5999    2.9528 C   0  0  0  0  0  0  0  0  0  0  0  0
   -1.0173   -2.4048    3.6798 C   0  0  0  0  0  0  0  0  0  0  0  0
    1.3575   -1.8193    3.2332 O   0  0  0  0  0  0  0  0  0  0  0  0
    4.1241   -0.9648   -0.8819 C   0  0  2  0  0  0  0  0  0  0  0  0
    3.7652   -2.2839   -0.5487 O   0  0  0  0  0  0  0  0  0  0  0  0
    5.6253   -0.7331   -0.6770 C   0  0  1  0  0  0  0  0  0  0  0  0
    6.3789   -1.7256   -1.4524 N   0  0  0  0  0  0  0  0  0  0  0  0
    7.4578   -2.3561   -1.0812 C   0  0  0  0  0  0  0  0  0  0  0  0
    8.0754   -2.1750    0.2744 C   0  0  0  0  0  0  0  0  0  0  0  0
    8.0511   -3.2561   -1.9618 O   0  0  0  0  0  0  0  0  0  0  0  0
    6.3394    0.6343   -2.2054 H   0  0  0  0  0  0  0  0  0  0  0  0
    7.8830    0.9028   -0.7437 H   0  0  0  0  0  0  0  0  0  0  0  0
    3.1842    2.2111   -0.2714 H   0  0  0  0  0  0  0  0  0  0  0  0
    5.3194    1.0992    1.6212 H   0  0  0  0  0  0  0  0  0  0  0  0
    5.1758    2.8286    1.1187 H   0  0  0  0  0  0  0  0  0  0  0  0
    4.0686    2.3374    3.0512 H   0  0  0  0  0  0  0  0  0  0  0  0
    3.2970   -0.2832    1.0069 H   0  0  0  0  0  0  0  0  0  0  0  0
    1.5037   -1.5367    0.4914 H   0  0  0  0  0  0  0  0  0  0  0  0
   -1.6178   -0.5312   -1.8519 H   0  0  0  0  0  0  0  0  0  0  0  0
   -0.8565    1.3407   -3.0421 H   0  0  0  0  0  0  0  0  0  0  0  0
    0.6471    1.5038   -2.0894 H   0  0  0  0  0  0  0  0  0  0  0  0
    0.9820    0.4326   -4.0512 H   0  0  0  0  0  0  0  0  0  0  0  0
   -1.8248    1.8135   -0.7593 H   0  0  0  0  0  0  0  0  0  0  0  0
   -3.7299    0.4495   -1.1932 H   0  0  0  0  0  0  0  0  0  0  0  0
   -5.6771    1.7814   -0.9737 H   0  0  0  0  0  0  0  0  0  0  0  0
   -5.4396    3.9131    1.2323 H   0  0  0  0  0  0  0  0  0  0  0  0
   -4.9738    4.0973   -0.5026 H   0  0  0  0  0  0  0  0  0  0  0  0
   -7.0713    4.8717   -0.0343 H   0  0  0  0  0  0  0  0  0  0  0  0
   -6.5767    1.9043    1.9480 H   0  0  0  0  0  0  0  0  0  0  0  0
   -8.2048    0.7139    1.1096 H   0  0  0  0  0  0  0  0  0  0  0  0
   -6.4011   -0.7881    1.8225 H   0  0  0  0  0  0  0  0  0  0  0  0
   -5.4823    0.3367    3.4552 H   0  0  0  0  0  0  0  0  0  0  0  0
   -4.1735   -1.4544    0.9191 H   0  0  0  0  0  0  0  0  0  0  0  0
   -6.6489   -1.4619   -3.0513 H   0  0  0  0  0  0  0  0  0  0  0  0
   -5.6545   -2.9243   -3.4159 H   0  0  0  0  0  0  0  0  0  0  0  0
   -6.9387   -3.0040   -2.1462 H   0  0  0  0  0  0  0  0  0  0  0  0
   -3.1610   -2.2267   -0.9545 H   0  0  0  0  0  0  0  0  0  0  0  0
   -0.9614    1.7943    1.6426 H   0  0  0  0  0  0  0  0  0  0  0  0
    0.8653    2.8199    0.9994 H   0  0  0  0  0  0  0  0  0  0  0  0
    1.2608    0.5964    1.9195 H   0  0  0  0  0  0  0  0  0  0  0  0
   -0.5445   -3.2955    4.1443 H   0  0  0  0  0  0  0  0  0  0  0  0
   -1.4812   -1.7841    4.4745 H   0  0  0  0  0  0  0  0  0  0  0  0
   -1.8050   -2.7456    2.9745 H   0  0  0  0  0  0  0  0  0  0  0  0
    2.1078   -1.2919    2.8096 H   0  0  0  0  0  0  0  0  0  0  0  0
    3.8926   -0.8149   -1.9609 H   0  0  0  0  0  0  0  0  0  0  0  0
    4.0181   -2.4372    0.3994 H   0  0  0  0  0  0  0  0  0  0  0  0
    5.8349   -0.8429    0.4091 H   0  0  0  0  0  0  0  0  0  0  0  0
    7.3869   -2.5587    1.0562 H   0  0  0  0  0  0  0  0  0  0  0  0
    8.2996   -1.1064    0.4633 H   0  0  0  0  0  0  0  0  0  0  0  0
    9.0264   -2.7444    0.3362 H   0  0  0  0  0  0  0  0  0  0  0  0
    7.6645   -3.4183   -2.8843 H   0  0  0  0  0  0  0  0  0  0  0  0
  1  2  1  0
  1  3  1  0
  3  4  1  0
  4  5  1  0
  5  6  1  0
  4  7  1  0
  7  8  1  0
  8  9  1  0
  9 10  1  0
 10 11  1  0
 11 12  1  0
 12 13  1  0
 11 14  1  0
 14 15  1  0
 15 16  1  0
 16 17  1  0
 17 18  1  0
 18 19  1  0
 19 20  1  0
 18 21  1  0
 21 22  1  0
 21 23  1  0
 23 24  1  0
 23 25  1  0
 25 26  1  0
 26 27  2  3
 27 28  1  0
 27 29  1  0
 14 30  1  0
 30 31  1  0
 30 32  1  0
 32 33  1  0
 33 34  2  3
 34 35  1  0
 34 36  1  0
  7 37  1  0
 37 38  1  0
 37 39  1  0
 39 40  1  0
 40 41  2  3
 41 42  1  0
 41 43  1  0
 39  1  1  0
 32  9  1  0
 25 16  1  0
  1 44  1  6
  2 45  1  0
  4 46  1  6
  5 47  1  0
  5 48  1  0
  6 49  1  0
  7 50  1  1
  9 51  1  1
 11 52  1  6
 12 53  1  0
 12 54  1  0
 13 55  1  0
 14 56  1  6
 16 57  1  6
 18 58  1  6
 19 59  1  0
 19 60  1  0
 20 61  1  0
 21 62  1  1
 22 63  1  0
 23 64  1  1
 24 65  1  0
 25 66  1  1
 28 67  1  0
 28 68  1  0
 28 69  1  0
 29 70  1  0
 30 71  1  1
 31 72  1  0
 32 73  1  1
 35 74  1  0
 35 75  1  0
 35 76  1  0
 36 77  1  0
 37 78  1  6
 38 79  1  0
 39 80  1  1
 42 81  1  0
 42 82  1  0
 42 83  1  0
 43 84  1  0
M  END
$$$$
