
     RDKit          3D

107109  0  0  0  0  0  0  0  0999 V2000
   13.9972   -0.6769    1.2661 C   0  0  0  0  0  0  0  0  0  0  0  0
   13.2613   -1.2546    0.0575 C   0  0  0  0  0  0  0  0  0  0  0  0
   12.1360   -0.3387   -0.4478 C   0  0  0  0  0  0  0  0  0  0  0  0
   10.9457   -0.2712    0.5239 C   0  0  0  0  0  0  0  0  0  0  0  0
    9.7615    0.5304   -0.0596 C   0  0  0  0  0  0  0  0  0  0  0  0
    8.5715   -0.3527   -0.4795 C   0  0  0  0  0  0  0  0  0  0  0  0
    8.8358   -1.2041   -1.7288 C   0  0  0  0  0  0  0  0  0  0  0  0
    9.0004   -0.3741   -2.9738 C   0  0  0  0  0  0  0  0  0  0  0  0
   10.1072   -0.2161   -3.4638 O   0  0  0  0  0  0  0  0  0  0  0  0
    7.5644    0.3410   -3.7842 S   0  0  0  0  0  0  0  0  0  0  0  0
    7.8873    2.0444   -3.2062 C   0  0  0  0  0  0  0  0  0  0  0  0
    6.6617    2.9273   -3.4375 C   0  0  0  0  0  0  0  0  0  0  0  0
    5.5160    2.4390   -2.6711 N   0  0  0  0  0  0  0  0  0  0  0  0
    5.4217    2.5762   -1.2460 C   0  0  0  0  0  0  0  0  0  0  0  0
    6.3028    3.2117   -0.6058 O   0  0  0  0  0  0  0  0  0  0  0  0
    4.2981    1.9212   -0.5025 C   0  0  0  0  0  0  0  0  0  0  0  0
    4.6774    0.4898   -0.1167 C   0  0  0  0  0  0  0  0  0  0  0  0
    3.5577   -0.1709    0.5491 N   0  0  0  0  0  0  0  0  0  0  0  0
    2.4024   -0.6337   -0.1656 C   0  0  0  0  0  0  0  0  0  0  0  0
    2.3723   -0.5749   -1.4256 O   0  0  0  0  0  0  0  0  0  0  0  0
    1.2090   -1.1748    0.5888 C   0  0  2  0  0  0  0  0  0  0  0  0
    0.6287   -2.2243   -0.1466 O   0  0  0  0  0  0  0  0  0  0  0  0
    0.1354   -0.0793    0.9055 C   0  0  0  0  0  0  0  0  0  0  0  0
   -0.4472    0.5161   -0.3987 C   0  0  0  0  0  0  0  0  0  0  0  0
    0.7672    1.0596    1.7418 C   0  0  0  0  0  0  0  0  0  0  0  0
   -1.0109   -0.7289    1.7282 C   0  0  0  0  0  0  0  0  0  0  0  0
   -1.9882    0.2332    2.0603 O   0  0  0  0  0  0  0  0  0  0  0  0
   -3.2077   -0.5214    2.9830 P   0  0  0  0  0  5  0  0  0  0  0  0
   -3.8076   -1.8611    2.1312 O   0  0  0  0  0  0  0  0  0  0  0  0
   -2.6278   -0.9646    4.3096 O   0  0  0  0  0  0  0  0  0  0  0  0
   -4.4338    0.6300    3.2545 O   0  0  0  0  0  0  0  0  0  0  0  0
   -5.7900   -0.1803    3.8936 P   0  0  0  0  0  5  0  0  0  0  0  0
   -6.9378    0.9758    4.3536 O   0  0  0  0  0  0  0  0  0  0  0  0
   -5.4007   -0.9813    5.1167 O   0  0  0  0  0  0  0  0  0  0  0  0
   -6.4803   -1.2234    2.7340 O   0  0  0  0  0  0  0  0  0  0  0  0
   -6.7655   -0.4700    1.5795 C   0  0  0  0  0  0  0  0  0  0  0  0
   -7.3859   -1.3877    0.5230 C   0  0  1  0  0  0  0  0  0  0  0  0
   -8.6173   -1.8929    0.9816 O   0  0  0  0  0  0  0  0  0  0  0  0
   -9.4429   -2.0749   -0.1505 C   0  0  2  0  0  0  0  0  0  0  0  0
   -8.7715   -1.4574   -1.3828 C   0  0  2  0  0  0  0  0  0  0  0  0
   -8.2886   -2.4810   -2.2180 O   0  0  0  0  0  0  0  0  0  0  0  0
   -7.6350   -0.6551   -0.7867 C   0  0  2  0  0  0  0  0  0  0  0  0
   -6.4693   -0.6897   -1.5888 O   0  0  0  0  0  0  0  0  0  0  0  0
   -6.4169    0.7003   -2.5761 P   0  0  0  0  0  5  0  0  0  0  0  0
   -7.8516    0.8402   -3.4648 O   0  0  0  0  0  0  0  0  0  0  0  0
   -6.2074    2.0735   -1.6078 O   0  0  0  0  0  0  0  0  0  0  0  0
   -5.2500    0.5805   -3.5297 O   0  0  0  0  0  0  0  0  0  0  0  0
  -10.7512   -1.4595    0.0870 N   0  0  0  0  0  0  0  0  0  0  0  0
  -11.9578   -1.9083   -0.3463 C   0  0  0  0  0  0  0  0  0  0  0  0
  -12.9870   -1.0674   -0.0488 N   0  0  0  0  0  0  0  0  0  0  0  0
  -12.3685   -0.0548    0.5875 C   0  0  0  0  0  0  0  0  0  0  0  0
  -11.0377   -0.2831    0.6616 C   0  0  0  0  0  0  0  0  0  0  0  0
  -10.1771    0.5953    1.2301 N   0  0  0  0  0  0  0  0  0  0  0  0
  -10.6896    1.7499    1.7520 C   0  0  0  0  0  0  0  0  0  0  0  0
  -12.0368    2.0028    1.6915 N   0  0  0  0  0  0  0  0  0  0  0  0
  -12.9020    1.1170    1.1125 C   0  0  0  0  0  0  0  0  0  0  0  0
  -14.2998    1.4006    1.0520 N   0  0  0  0  0  0  0  0  0  0  0  0
   14.8702   -1.3192    1.5075 H   0  0  0  0  0  0  0  0  0  0  0  0
   13.3331   -0.6501    2.1547 H   0  0  0  0  0  0  0  0  0  0  0  0
   14.3634    0.3481    1.0453 H   0  0  0  0  0  0  0  0  0  0  0  0
   13.9970   -1.3921   -0.7644 H   0  0  0  0  0  0  0  0  0  0  0  0
   12.8532   -2.2566    0.3131 H   0  0  0  0  0  0  0  0  0  0  0  0
   12.5355    0.6841   -0.6250 H   0  0  0  0  0  0  0  0  0  0  0  0
   11.7914   -0.7343   -1.4250 H   0  0  0  0  0  0  0  0  0  0  0  0
   11.2792    0.2332    1.4560 H   0  0  0  0  0  0  0  0  0  0  0  0
   10.6280   -1.2992    0.8051 H   0  0  0  0  0  0  0  0  0  0  0  0
   10.0859    1.1732   -0.9063 H   0  0  0  0  0  0  0  0  0  0  0  0
    9.3916    1.2236    0.7276 H   0  0  0  0  0  0  0  0  0  0  0  0
    8.2982   -1.0244    0.3633 H   0  0  0  0  0  0  0  0  0  0  0  0
    7.6872    0.2926   -0.6617 H   0  0  0  0  0  0  0  0  0  0  0  0
    9.7238   -1.8521   -1.5729 H   0  0  0  0  0  0  0  0  0  0  0  0
    7.9702   -1.8841   -1.8794 H   0  0  0  0  0  0  0  0  0  0  0  0
    8.7466    2.4571   -3.7761 H   0  0  0  0  0  0  0  0  0  0  0  0
    8.1517    2.0555   -2.1310 H   0  0  0  0  0  0  0  0  0  0  0  0
    6.4104    2.9252   -4.5204 H   0  0  0  0  0  0  0  0  0  0  0  0
    6.8896    3.9752   -3.1460 H   0  0  0  0  0  0  0  0  0  0  0  0
    4.7315    1.9823   -3.1889 H   0  0  0  0  0  0  0  0  0  0  0  0
    3.3880    1.9190   -1.1396 H   0  0  0  0  0  0  0  0  0  0  0  0
    4.0678    2.5041    0.4158 H   0  0  0  0  0  0  0  0  0  0  0  0
    4.9777   -0.0935   -1.0151 H   0  0  0  0  0  0  0  0  0  0  0  0
    5.5442    0.5199    0.5791 H   0  0  0  0  0  0  0  0  0  0  0  0
    3.6132   -0.3222    1.5815 H   0  0  0  0  0  0  0  0  0  0  0  0
    1.5752   -1.5843    1.5602 H   0  0  0  0  0  0  0  0  0  0  0  0
    1.2383   -3.0046   -0.0691 H   0  0  0  0  0  0  0  0  0  0  0  0
   -1.2336    1.2679   -0.1738 H   0  0  0  0  0  0  0  0  0  0  0  0
   -0.9005   -0.2787   -1.0287 H   0  0  0  0  0  0  0  0  0  0  0  0
    0.3395    1.0299   -0.9900 H   0  0  0  0  0  0  0  0  0  0  0  0
    1.2237    0.6558    2.6710 H   0  0  0  0  0  0  0  0  0  0  0  0
    0.0049    1.8153    2.0282 H   0  0  0  0  0  0  0  0  0  0  0  0
    1.5527    1.5916    1.1652 H   0  0  0  0  0  0  0  0  0  0  0  0
   -1.4691   -1.5435    1.1226 H   0  0  0  0  0  0  0  0  0  0  0  0
   -0.5767   -1.1749    2.6530 H   0  0  0  0  0  0  0  0  0  0  0  0
   -3.9731   -2.5556    2.8176 H   0  0  0  0  0  0  0  0  0  0  0  0
   -7.7438    0.4515    4.5913 H   0  0  0  0  0  0  0  0  0  0  0  0
   -5.8320   -0.0362    1.1539 H   0  0  0  0  0  0  0  0  0  0  0  0
   -7.4824    0.3498    1.8117 H   0  0  0  0  0  0  0  0  0  0  0  0
   -6.6965   -2.2463    0.3478 H   0  0  0  0  0  0  0  0  0  0  0  0
   -9.5864   -3.1690   -0.2993 H   0  0  0  0  0  0  0  0  0  0  0  0
   -9.4744   -0.7954   -1.9429 H   0  0  0  0  0  0  0  0  0  0  0  0
   -8.1657   -2.0823   -3.1189 H   0  0  0  0  0  0  0  0  0  0  0  0
   -7.9976    0.3768   -0.5552 H   0  0  0  0  0  0  0  0  0  0  0  0
   -7.7483    1.6766   -3.9847 H   0  0  0  0  0  0  0  0  0  0  0  0
   -6.2026    2.8339   -2.2423 H   0  0  0  0  0  0  0  0  0  0  0  0
  -12.0911   -2.8360   -0.8877 H   0  0  0  0  0  0  0  0  0  0  0  0
  -10.0280    2.4692    2.2145 H   0  0  0  0  0  0  0  0  0  0  0  0
  -14.6722    2.2898    1.4528 H   0  0  0  0  0  0  0  0  0  0  0  0
  -14.9663    0.7290    0.6103 H   0  0  0  0  0  0  0  0  0  0  0  0
  1  2  1  0
  2  3  1  0
  3  4  1  0
  4  5  1  0
  5  6  1  0
  6  7  1  0
  7  8  1  0
  8  9  2  0
  8 10  1  0
 10 11  1  0
 11 12  1  0
 12 13  1  0
 13 14  1  0
 14 15  2  0
 14 16  1  0
 16 17  1  0
 17 18  1  0
 18 19  1  0
 19 20  2  0
 19 21  1  0
 21 22  1  0
 21 23  1  0
 23 24  1  0
 23 25  1  0
 23 26  1  0
 26 27  1  0
 27 28  1  0
 28 29  1  0
 28 30  2  0
 28 31  1  0
 31 32  1  0
 32 33  1  0
 32 34  2  0
 32 35  1  0
 35 36  1  0
 36 37  1  0
 37 38  1  0
 38 39  1  0
 39 40  1  0
 40 41  1  0
 40 42  1  0
 42 43  1  0
 43 44  1  0
 44 45  1  0
 44 46  1  0
 44 47  2  0
 39 48  1  0
 48 49  1  0
 49 50  2  0
 50 51  1  0
 51 52  2  0
 52 53  1  0
 53 54  2  0
 54 55  1  0
 55 56  2  0
 56 57  1  0
 42 37  1  0
 52 48  1  0
 56 51  1  0
  1 58  1  0
  1 59  1  0
  1 60  1  0
  2 61  1  0
  2 62  1  0
  3 63  1  0
  3 64  1  0
  4 65  1  0
  4 66  1  0
  5 67  1  0
  5 68  1  0
  6 69  1  0
  6 70  1  0
  7 71  1  0
  7 72  1  0
 11 73  1  0
 11 74  1  0
 12 75  1  0
 12 76  1  0
 13 77  1  0
 16 78  1  0
 16 79  1  0
 17 80  1  0
 17 81  1  0
 18 82  1  0
 21 83  1  1
 22 84  1  0
 24 85  1  0
 24 86  1  0
 24 87  1  0
 25 88  1  0
 25 89  1  0
 25 90  1  0
 26 91  1  0
 26 92  1  0
 29 93  1  0
 33 94  1  0
 36 95  1  0
 36 96  1  0
 37 97  1  6
 39 98  1  6
 40 99  1  6
 41100  1  0
 42101  1  1
 45102  1  0
 46103  1  0
 49104  1  0
 54105  1  0
 57106  1  0
 57107  1  0
M  END
$$$$
