
     RDKit          3D

 23 23  0  0  0  0  0  0  0  0999 V2000
    3.6058    0.5915    1.4063 O   0  0  0  0  0  0  0  0  0  0  0  0
    3.6905    0.1313    0.0846 C   0  0  0  0  0  0  0  0  0  0  0  0
    2.6204   -0.9219   -0.1845 C   0  0  0  0  0  0  0  0  0  0  0  0
    1.3273   -0.3358   -0.0748 O   0  0  0  0  0  0  0  0  0  0  0  0
    0.1488   -1.0569   -0.2888 C   0  0  0  0  0  0  0  0  0  0  0  0
    0.2009   -2.2896   -0.5544 O   0  0  0  0  0  0  0  0  0  0  0  0
   -1.1646   -0.3931   -0.1432 C   0  0  0  0  0  0  0  0  0  0  0  0
   -2.2314   -1.1222    0.4149 C   0  0  0  0  0  0  0  0  0  0  0  0
   -3.4671   -0.5132    0.6443 C   0  0  0  0  0  0  0  0  0  0  0  0
   -3.6553    0.8299    0.3203 C   0  0  0  0  0  0  0  0  0  0  0  0
   -2.6144    1.5623   -0.2525 C   0  0  0  0  0  0  0  0  0  0  0  0
   -1.3758    0.9607   -0.5091 C   0  0  0  0  0  0  0  0  0  0  0  0
   -0.4026    1.7252   -1.1561 O   0  0  0  0  0  0  0  0  0  0  0  0
    2.8760    1.2643    1.4283 H   0  0  0  0  0  0  0  0  0  0  0  0
    3.5874    0.9754   -0.6353 H   0  0  0  0  0  0  0  0  0  0  0  0
    4.6913   -0.3252   -0.0677 H   0  0  0  0  0  0  0  0  0  0  0  0
    2.7589   -1.3267   -1.2106 H   0  0  0  0  0  0  0  0  0  0  0  0
    2.7220   -1.7518    0.5484 H   0  0  0  0  0  0  0  0  0  0  0  0
   -2.1005   -2.1591    0.7000 H   0  0  0  0  0  0  0  0  0  0  0  0
   -4.2766   -1.0812    1.0844 H   0  0  0  0  0  0  0  0  0  0  0  0
   -4.6117    1.3019    0.5046 H   0  0  0  0  0  0  0  0  0  0  0  0
   -2.7774    2.5986   -0.5210 H   0  0  0  0  0  0  0  0  0  0  0  0
    0.4481    1.3356   -1.5381 H   0  0  0  0  0  0  0  0  0  0  0  0
  1  2  1  0
  2  3  1  0
  3  4  1  0
  4  5  1  0
  5  6  2  0
  5  7  1  0
  7  8  2  0
  8  9  1  0
  9 10  2  0
 10 11  1  0
 11 12  2  0
 12 13  1  0
 12  7  1  0
  1 14  1  0
  2 15  1  0
  2 16  1  0
  3 17  1  0
  3 18  1  0
  8 19  1  0
  9 20  1  0
 10 21  1  0
 11 22  1  0
 13 23  1  0
M  END
$$$$
