
     RDKit          3D

 42 43  0  0  0  0  0  0  0  0999 V2000
    0.9422   -1.6624   -0.9193 C   0  0  2  0  0  0  0  0  0  0  0  0
    1.0417   -1.2191   -2.2480 O   0  0  0  0  0  0  0  0  0  0  0  0
   -0.0535   -0.7947   -0.1369 C   0  0  0  0  0  0  0  0  0  0  0  0
   -1.3620   -0.9623   -0.6771 O   0  0  0  0  0  0  0  0  0  0  0  0
   -2.5114   -0.3067   -0.2060 C   0  0  0  0  0  0  0  0  0  0  0  0
   -3.7424   -0.5563   -0.8429 C   0  0  0  0  0  0  0  0  0  0  0  0
   -3.8140   -1.5134   -1.9996 C   0  0  0  0  0  0  0  0  0  0  0  0
   -4.9078    0.0727   -0.3774 C   0  0  0  0  0  0  0  0  0  0  0  0
   -4.8519    0.9562    0.7018 C   0  0  0  0  0  0  0  0  0  0  0  0
   -3.6291    1.2318    1.3268 C   0  0  0  0  0  0  0  0  0  0  0  0
   -3.5773    2.1516    2.5111 C   0  0  0  0  0  0  0  0  0  0  0  0
   -2.4653    0.5874    0.8826 C   0  0  0  0  0  0  0  0  0  0  0  0
    2.3357   -1.6725   -0.2587 C   0  0  0  0  0  0  0  0  0  0  0  0
    2.8229   -0.3122    0.0721 N   0  0  0  0  0  0  0  0  0  0  0  0
    3.3010    0.4114   -1.1295 C   0  0  0  0  0  0  0  0  0  0  0  0
    4.1681    1.6270   -0.7499 C   0  0  0  0  0  0  0  0  0  0  0  0
    3.8992    2.0297    0.5761 O   0  0  0  0  0  0  0  0  0  0  0  0
    4.3524    1.0362    1.4790 C   0  0  0  0  0  0  0  0  0  0  0  0
    3.8940   -0.3843    1.0831 C   0  0  0  0  0  0  0  0  0  0  0  0
    0.5708   -2.7147   -0.9117 H   0  0  0  0  0  0  0  0  0  0  0  0
    0.2314   -1.5407   -2.7234 H   0  0  0  0  0  0  0  0  0  0  0  0
    0.2412    0.2749   -0.2089 H   0  0  0  0  0  0  0  0  0  0  0  0
   -0.0551   -1.1060    0.9307 H   0  0  0  0  0  0  0  0  0  0  0  0
   -4.8283   -1.5338   -2.4520 H   0  0  0  0  0  0  0  0  0  0  0  0
   -3.0910   -1.2087   -2.7857 H   0  0  0  0  0  0  0  0  0  0  0  0
   -3.5622   -2.5370   -1.6512 H   0  0  0  0  0  0  0  0  0  0  0  0
   -5.8636   -0.1220   -0.8480 H   0  0  0  0  0  0  0  0  0  0  0  0
   -5.7638    1.4257    1.0499 H   0  0  0  0  0  0  0  0  0  0  0  0
   -4.3796    2.9175    2.4497 H   0  0  0  0  0  0  0  0  0  0  0  0
   -2.6014    2.6807    2.5529 H   0  0  0  0  0  0  0  0  0  0  0  0
   -3.7101    1.5621    3.4422 H   0  0  0  0  0  0  0  0  0  0  0  0
   -1.5307    0.7867    1.3898 H   0  0  0  0  0  0  0  0  0  0  0  0
    2.2403   -2.2775    0.6717 H   0  0  0  0  0  0  0  0  0  0  0  0
    3.0600   -2.2126   -0.9095 H   0  0  0  0  0  0  0  0  0  0  0  0
    3.8907   -0.2537   -1.7999 H   0  0  0  0  0  0  0  0  0  0  0  0
    2.4217    0.7857   -1.6947 H   0  0  0  0  0  0  0  0  0  0  0  0
    3.9403    2.4725   -1.4335 H   0  0  0  0  0  0  0  0  0  0  0  0
    5.2500    1.3913   -0.8806 H   0  0  0  0  0  0  0  0  0  0  0  0
    3.9438    1.2789    2.4831 H   0  0  0  0  0  0  0  0  0  0  0  0
    5.4614    1.0741    1.5632 H   0  0  0  0  0  0  0  0  0  0  0  0
    4.7621   -0.9570    0.6826 H   0  0  0  0  0  0  0  0  0  0  0  0
    3.5299   -0.9062    1.9960 H   0  0  0  0  0  0  0  0  0  0  0  0
  1  2  1  0
  1  3  1  0
  3  4  1  0
  4  5  1  0
  5  6  2  0
  6  7  1  0
  6  8  1  0
  8  9  2  0
  9 10  1  0
 10 11  1  0
 10 12  2  0
  1 13  1  0
 13 14  1  0
 14 15  1  0
 15 16  1  0
 16 17  1  0
 17 18  1  0
 18 19  1  0
 12  5  1  0
 19 14  1  0
  1 20  1  6
  2 21  1  0
  3 22  1  0
  3 23  1  0
  7 24  1  0
  7 25  1  0
  7 26  1  0
  8 27  1  0
  9 28  1  0
 11 29  1  0
 11 30  1  0
 11 31  1  0
 12 32  1  0
 13 33  1  0
 13 34  1  0
 15 35  1  0
 15 36  1  0
 16 37  1  0
 16 38  1  0
 18 39  1  0
 18 40  1  0
 19 41  1  0
 19 42  1  0
M  END
$$$$
