
     RDKit          3D

 29 30  0  0  0  0  0  0  0  0999 V2000
   -4.6591   -0.7955   -1.3301 O   0  0  0  0  0  0  0  0  0  0  0  0
   -3.2779   -0.7302   -1.1650 C   0  0  0  0  0  0  0  0  0  0  0  0
   -2.5381   -1.4500   -1.8881 O   0  0  0  0  0  0  0  0  0  0  0  0
   -2.6944    0.2104   -0.1784 C   0  0  0  0  0  0  0  0  0  0  0  0
   -1.3855    0.0610    0.3457 C   0  0  0  0  0  0  0  0  0  0  0  0
   -0.5952   -1.1063    0.0655 N   0  0  0  0  0  0  0  0  0  0  0  0
    0.8423   -1.0953    0.0135 C   0  0  0  0  0  0  0  0  0  0  0  0
    1.5518   -2.2666    0.3142 C   0  0  0  0  0  0  0  0  0  0  0  0
    2.9471   -2.2789    0.2683 C   0  0  0  0  0  0  0  0  0  0  0  0
    3.6482   -1.1285   -0.0992 C   0  0  0  0  0  0  0  0  0  0  0  0
    2.9562    0.0429   -0.4517 C   0  0  0  0  0  0  0  0  0  0  0  0
    1.5517    0.0561   -0.3767 C   0  0  0  0  0  0  0  0  0  0  0  0
    3.7101    1.2975   -0.8165 C   0  0  0  0  0  0  0  0  0  0  0  0
    4.9371    0.9889   -1.3780 F   0  0  0  0  0  0  0  0  0  0  0  0
    2.9926    2.0473   -1.7325 F   0  0  0  0  0  0  0  0  0  0  0  0
    3.9138    2.0530    0.3230 F   0  0  0  0  0  0  0  0  0  0  0  0
   -0.8963    1.0004    1.2040 N   0  0  0  0  0  0  0  0  0  0  0  0
   -1.6155    2.0881    1.5801 C   0  0  0  0  0  0  0  0  0  0  0  0
   -2.9110    2.2646    1.1026 C   0  0  0  0  0  0  0  0  0  0  0  0
   -3.4500    1.3240    0.2262 C   0  0  0  0  0  0  0  0  0  0  0  0
   -5.0730   -1.4223   -2.0098 H   0  0  0  0  0  0  0  0  0  0  0  0
   -1.0801   -2.0314    0.0338 H   0  0  0  0  0  0  0  0  0  0  0  0
    1.0226   -3.1664    0.6018 H   0  0  0  0  0  0  0  0  0  0  0  0
    3.4872   -3.1817    0.5230 H   0  0  0  0  0  0  0  0  0  0  0  0
    4.7305   -1.1565   -0.1120 H   0  0  0  0  0  0  0  0  0  0  0  0
    1.0122    0.9573   -0.6378 H   0  0  0  0  0  0  0  0  0  0  0  0
   -1.1837    2.8102    2.2601 H   0  0  0  0  0  0  0  0  0  0  0  0
   -3.4915    3.1269    1.4041 H   0  0  0  0  0  0  0  0  0  0  0  0
   -4.4522    1.4809   -0.1530 H   0  0  0  0  0  0  0  0  0  0  0  0
  1  2  1  0
  2  3  2  0
  2  4  1  0
  4  5  2  0
  5  6  1  0
  6  7  1  0
  7  8  2  0
  8  9  1  0
  9 10  2  0
 10 11  1  0
 11 12  2  0
 11 13  1  0
 13 14  1  0
 13 15  1  0
 13 16  1  0
  5 17  1  0
 17 18  2  0
 18 19  1  0
 19 20  2  0
 20  4  1  0
 12  7  1  0
  1 21  1  0
  6 22  1  0
  8 23  1  0
  9 24  1  0
 10 25  1  0
 12 26  1  0
 18 27  1  0
 19 28  1  0
 20 29  1  0
M  END
$$$$
