
     RDKit          3D

 62 64  0  0  0  0  0  0  0  0999 V2000
   -6.0714   -2.0192   -2.0811 C   0  0  0  0  0  0  0  0  0  0  0  0
   -5.0505   -1.0503   -1.8735 O   0  0  0  0  0  0  0  0  0  0  0  0
   -5.1364   -0.1027   -0.8487 C   0  0  0  0  0  0  0  0  0  0  0  0
   -4.4001   -0.3034    0.3506 C   0  0  0  0  0  0  0  0  0  0  0  0
   -3.4909   -1.5033    0.4912 C   0  0  0  0  0  0  0  0  0  0  0  0
   -2.1128   -1.1907   -0.0371 C   0  0  0  0  0  0  0  0  0  0  0  0
   -1.1011   -2.0863   -0.0385 C   0  0  0  0  0  0  0  0  0  0  0  0
   -1.2922   -3.4894    0.4873 C   0  0  0  0  0  0  0  0  0  0  0  0
    0.2478   -1.6767   -0.5884 C   0  0  0  0  0  0  0  0  0  0  0  0
    0.9858   -0.7672    0.3983 C   0  0  0  0  0  0  0  0  0  0  0  0
    2.3271   -0.3884   -0.1431 C   0  0  0  0  0  0  0  0  0  0  0  0
    2.4485    0.6564   -0.8395 O   0  0  0  0  0  0  0  0  0  0  0  0
    3.4227   -1.2283    0.0866 O   0  0  0  0  0  0  0  0  0  0  0  0
    4.7433   -0.9400   -0.3693 C   0  0  0  0  0  0  0  0  0  0  0  0
    5.4038    0.1142    0.5262 C   0  0  0  0  0  0  0  0  0  0  0  0
    6.7157    0.5215   -0.0219 N   0  0  0  0  0  0  0  0  0  0  0  0
    7.7709   -0.4496    0.3336 C   0  0  0  0  0  0  0  0  0  0  0  0
    9.1256    0.0378   -0.1947 C   0  0  0  0  0  0  0  0  0  0  0  0
    9.4460    1.3053    0.3443 O   0  0  0  0  0  0  0  0  0  0  0  0
    8.4713    2.2506   -0.0510 C   0  0  0  0  0  0  0  0  0  0  0  0
    7.0871    1.8583    0.4803 C   0  0  0  0  0  0  0  0  0  0  0  0
   -4.4693    0.6533    1.3901 C   0  0  0  0  0  0  0  0  0  0  0  0
   -3.7186    0.4764    2.5542 O   0  0  0  0  0  0  0  0  0  0  0  0
   -5.3009    1.7659    1.2104 C   0  0  0  0  0  0  0  0  0  0  0  0
   -5.6129    2.8874    2.0723 C   0  0  0  0  0  0  0  0  0  0  0  0
   -5.1715    3.0857    3.2337 O   0  0  0  0  0  0  0  0  0  0  0  0
   -6.4993    3.7395    1.4321 O   0  0  0  0  0  0  0  0  0  0  0  0
   -6.8094    3.2389    0.1310 C   0  0  0  0  0  0  0  0  0  0  0  0
   -6.0126    1.9642    0.0488 C   0  0  0  0  0  0  0  0  0  0  0  0
   -5.9336    1.0570   -1.0162 C   0  0  0  0  0  0  0  0  0  0  0  0
   -6.7122    1.2998   -2.2812 C   0  0  0  0  0  0  0  0  0  0  0  0
   -6.1955   -2.6412   -1.1697 H   0  0  0  0  0  0  0  0  0  0  0  0
   -7.0345   -1.5246   -2.3223 H   0  0  0  0  0  0  0  0  0  0  0  0
   -5.7834   -2.6753   -2.9277 H   0  0  0  0  0  0  0  0  0  0  0  0
   -3.4211   -1.8066    1.5575 H   0  0  0  0  0  0  0  0  0  0  0  0
   -3.9118   -2.3710   -0.0585 H   0  0  0  0  0  0  0  0  0  0  0  0
   -1.9279   -0.1948   -0.4351 H   0  0  0  0  0  0  0  0  0  0  0  0
   -2.0674   -4.0155   -0.1081 H   0  0  0  0  0  0  0  0  0  0  0  0
   -1.6025   -3.4563    1.5527 H   0  0  0  0  0  0  0  0  0  0  0  0
   -0.3526   -4.0770    0.4269 H   0  0  0  0  0  0  0  0  0  0  0  0
    0.8708   -2.5753   -0.7903 H   0  0  0  0  0  0  0  0  0  0  0  0
    0.1091   -1.1520   -1.5599 H   0  0  0  0  0  0  0  0  0  0  0  0
    0.3924    0.1537    0.5892 H   0  0  0  0  0  0  0  0  0  0  0  0
    1.1224   -1.2974    1.3659 H   0  0  0  0  0  0  0  0  0  0  0  0
    5.3282   -1.8812   -0.3329 H   0  0  0  0  0  0  0  0  0  0  0  0
    4.7171   -0.5924   -1.4254 H   0  0  0  0  0  0  0  0  0  0  0  0
    5.5000   -0.2775    1.5643 H   0  0  0  0  0  0  0  0  0  0  0  0
    4.7182    0.9896    0.5710 H   0  0  0  0  0  0  0  0  0  0  0  0
    7.5583   -1.4364   -0.1280 H   0  0  0  0  0  0  0  0  0  0  0  0
    7.8370   -0.5808    1.4380 H   0  0  0  0  0  0  0  0  0  0  0  0
    9.9101   -0.6850    0.1137 H   0  0  0  0  0  0  0  0  0  0  0  0
    9.1225    0.0677   -1.3083 H   0  0  0  0  0  0  0  0  0  0  0  0
    8.7480    3.2399    0.3705 H   0  0  0  0  0  0  0  0  0  0  0  0
    8.4477    2.3581   -1.1596 H   0  0  0  0  0  0  0  0  0  0  0  0
    7.1009    1.8722    1.5945 H   0  0  0  0  0  0  0  0  0  0  0  0
    6.3520    2.6137    0.1252 H   0  0  0  0  0  0  0  0  0  0  0  0
   -3.7251    1.1368    3.3189 H   0  0  0  0  0  0  0  0  0  0  0  0
   -7.8968    3.0300    0.0489 H   0  0  0  0  0  0  0  0  0  0  0  0
   -6.4779    3.9635   -0.6421 H   0  0  0  0  0  0  0  0  0  0  0  0
   -6.2354    0.7990   -3.1493 H   0  0  0  0  0  0  0  0  0  0  0  0
   -7.7462    0.9156   -2.1587 H   0  0  0  0  0  0  0  0  0  0  0  0
   -6.7564    2.3838   -2.5150 H   0  0  0  0  0  0  0  0  0  0  0  0
  1  2  1  0
  2  3  1  0
  3  4  2  0
  4  5  1  0
  5  6  1  0
  6  7  2  0
  7  8  1  0
  7  9  1  0
  9 10  1  0
 10 11  1  0
 11 12  2  0
 11 13  1  0
 13 14  1  0
 14 15  1  0
 15 16  1  0
 16 17  1  0
 17 18  1  0
 18 19  1  0
 19 20  1  0
 20 21  1  0
  4 22  1  0
 22 23  1  0
 22 24  2  0
 24 25  1  0
 25 26  2  0
 25 27  1  0
 27 28  1  0
 28 29  1  0
 29 30  2  0
 30 31  1  0
 30  3  1  0
 21 16  1  0
 29 24  1  0
  1 32  1  0
  1 33  1  0
  1 34  1  0
  5 35  1  0
  5 36  1  0
  6 37  1  0
  8 38  1  0
  8 39  1  0
  8 40  1  0
  9 41  1  0
  9 42  1  0
 10 43  1  0
 10 44  1  0
 14 45  1  0
 14 46  1  0
 15 47  1  0
 15 48  1  0
 17 49  1  0
 17 50  1  0
 18 51  1  0
 18 52  1  0
 20 53  1  0
 20 54  1  0
 21 55  1  0
 21 56  1  0
 23 57  1  0
 28 58  1  0
 28 59  1  0
 31 60  1  0
 31 61  1  0
 31 62  1  0
M  END
$$$$
