
     RDKit          3D

 56 58  0  0  0  0  0  0  0  0999 V2000
    5.4650   -2.7047    0.1703 C   0  0  0  0  0  0  0  0  0  0  0  0
    4.4142   -1.6467    0.3665 C   0  0  0  0  0  0  0  0  0  0  0  0
    3.1401   -1.8354   -0.1878 C   0  0  0  0  0  0  0  0  0  0  0  0
    2.1414   -0.8594   -0.0481 C   0  0  0  0  0  0  0  0  0  0  0  0
    2.4362    0.3199    0.6542 C   0  0  0  0  0  0  0  0  0  0  0  0
    3.7050    0.5274    1.2161 C   0  0  0  0  0  0  0  0  0  0  0  0
    3.9501    1.7883    1.9984 C   0  0  0  0  0  0  0  0  0  0  0  0
    4.7176   -0.4399    1.0276 C   0  0  0  0  0  0  0  0  0  0  0  0
    6.0176   -0.2346    1.5110 O   0  0  0  0  0  0  0  0  0  0  0  0
    6.9104    0.7455    0.9773 C   0  0  0  0  0  0  0  0  0  0  0  0
    7.4679    0.3084   -0.3790 C   0  0  0  0  0  0  0  0  0  0  0  0
    6.4270    0.3401   -1.4021 N   0  0  0  0  0  0  0  0  0  0  0  0
    0.8018   -1.0725   -0.6491 C   0  0  0  0  0  0  0  0  0  0  0  0
    0.6601   -1.9331   -1.5608 O   0  0  0  0  0  0  0  0  0  0  0  0
   -0.3437   -0.3464   -0.1719 N   0  0  0  0  0  0  0  0  0  0  0  0
   -1.5532   -0.1745   -0.9311 C   0  0  0  0  0  0  0  0  0  0  0  0
   -1.5293   -0.0833   -2.3331 C   0  0  0  0  0  0  0  0  0  0  0  0
   -2.7152    0.1028   -3.0478 C   0  0  0  0  0  0  0  0  0  0  0  0
   -2.6738    0.2159   -4.7980 Cl  0  0  0  0  0  0  0  0  0  0  0  0
   -3.9327    0.2122   -2.3707 C   0  0  0  0  0  0  0  0  0  0  0  0
   -3.9771    0.1457   -0.9667 C   0  0  0  0  0  0  0  0  0  0  0  0
   -2.7765   -0.0415   -0.2567 C   0  0  0  0  0  0  0  0  0  0  0  0
   -5.2343    0.2696   -0.2650 N   0  0  0  0  0  0  0  0  0  0  0  0
   -6.4662   -0.2834   -0.8518 C   0  0  0  0  0  0  0  0  0  0  0  0
   -7.4644   -0.6645    0.2458 C   0  0  0  0  0  0  0  0  0  0  0  0
   -7.8007    0.5227    1.1673 C   0  0  0  0  0  0  0  0  0  0  0  0
   -6.6727    1.5661    1.2705 C   0  0  0  0  0  0  0  0  0  0  0  0
   -5.2892    0.9505    1.0393 C   0  0  0  0  0  0  0  0  0  0  0  0
    6.1708   -2.7285    1.0270 H   0  0  0  0  0  0  0  0  0  0  0  0
    5.0005   -3.7108    0.0923 H   0  0  0  0  0  0  0  0  0  0  0  0
    6.0291   -2.4988   -0.7627 H   0  0  0  0  0  0  0  0  0  0  0  0
    2.9267   -2.7522   -0.7249 H   0  0  0  0  0  0  0  0  0  0  0  0
    1.6839    1.0916    0.7596 H   0  0  0  0  0  0  0  0  0  0  0  0
    4.2308    2.6086    1.3056 H   0  0  0  0  0  0  0  0  0  0  0  0
    4.7520    1.6445    2.7525 H   0  0  0  0  0  0  0  0  0  0  0  0
    3.0323    2.0883    2.5479 H   0  0  0  0  0  0  0  0  0  0  0  0
    7.7591    0.8591    1.6841 H   0  0  0  0  0  0  0  0  0  0  0  0
    6.4188    1.7350    0.8862 H   0  0  0  0  0  0  0  0  0  0  0  0
    8.2993    0.9882   -0.6708 H   0  0  0  0  0  0  0  0  0  0  0  0
    7.8768   -0.7218   -0.2931 H   0  0  0  0  0  0  0  0  0  0  0  0
    6.8395   -0.0321   -2.2878 H   0  0  0  0  0  0  0  0  0  0  0  0
    6.1772    1.3392   -1.5855 H   0  0  0  0  0  0  0  0  0  0  0  0
   -0.3407   -0.0235    0.8220 H   0  0  0  0  0  0  0  0  0  0  0  0
   -0.5923   -0.1333   -2.8720 H   0  0  0  0  0  0  0  0  0  0  0  0
   -4.8391    0.3711   -2.9404 H   0  0  0  0  0  0  0  0  0  0  0  0
   -2.7914   -0.1089    0.8235 H   0  0  0  0  0  0  0  0  0  0  0  0
   -6.2313   -1.1983   -1.4388 H   0  0  0  0  0  0  0  0  0  0  0  0
   -6.9224    0.4670   -1.5331 H   0  0  0  0  0  0  0  0  0  0  0  0
   -7.0212   -1.4833    0.8547 H   0  0  0  0  0  0  0  0  0  0  0  0
   -8.3964   -1.0563   -0.2159 H   0  0  0  0  0  0  0  0  0  0  0  0
   -8.7185    1.0282    0.7950 H   0  0  0  0  0  0  0  0  0  0  0  0
   -8.0319    0.1301    2.1816 H   0  0  0  0  0  0  0  0  0  0  0  0
   -6.7031    2.0533    2.2690 H   0  0  0  0  0  0  0  0  0  0  0  0
   -6.8376    2.3568    0.5056 H   0  0  0  0  0  0  0  0  0  0  0  0
   -5.0597    0.2232    1.8479 H   0  0  0  0  0  0  0  0  0  0  0  0
   -4.5364    1.7684    1.0743 H   0  0  0  0  0  0  0  0  0  0  0  0
  1  2  1  0
  2  3  2  0
  3  4  1  0
  4  5  2  0
  5  6  1  0
  6  7  1  0
  6  8  2  0
  8  9  1  0
  9 10  1  0
 10 11  1  0
 11 12  1  0
  4 13  1  0
 13 14  2  0
 13 15  1  0
 15 16  1  0
 16 17  2  0
 17 18  1  0
 18 19  1  0
 18 20  2  0
 20 21  1  0
 21 22  2  0
 21 23  1  0
 23 24  1  0
 24 25  1  0
 25 26  1  0
 26 27  1  0
 27 28  1  0
  8  2  1  0
 22 16  1  0
 28 23  1  0
  1 29  1  0
  1 30  1  0
  1 31  1  0
  3 32  1  0
  5 33  1  0
  7 34  1  0
  7 35  1  0
  7 36  1  0
 10 37  1  0
 10 38  1  0
 11 39  1  0
 11 40  1  0
 12 41  1  0
 12 42  1  0
 15 43  1  0
 17 44  1  0
 20 45  1  0
 22 46  1  0
 24 47  1  0
 24 48  1  0
 25 49  1  0
 25 50  1  0
 26 51  1  0
 26 52  1  0
 27 53  1  0
 27 54  1  0
 28 55  1  0
 28 56  1  0
M  END
$$$$
