
     RDKit          3D

 84 87  0  0  0  0  0  0  0  0999 V2000
    6.8132    0.8644   -4.8378 C   0  0  0  0  0  0  0  0  0  0  0  0
    6.1628    0.5928   -3.6026 O   0  0  0  0  0  0  0  0  0  0  0  0
    6.7199    0.9322   -2.3653 C   0  0  0  0  0  0  0  0  0  0  0  0
    7.8243    1.5388   -2.3127 O   0  0  0  0  0  0  0  0  0  0  0  0
    5.9709    0.6299   -1.1256 C   0  0  0  0  0  0  0  0  0  0  0  0
    4.5809    0.8355   -1.1565 C   0  0  0  0  0  0  0  0  0  0  0  0
    3.7961    0.6540   -0.0122 C   0  0  0  0  0  0  0  0  0  0  0  0
    2.2988    0.8134   -0.0816 C   0  0  0  0  0  0  0  0  0  0  0  0
    1.6100   -0.5345   -0.3520 C   0  0  2  0  0  0  0  0  0  0  0  0
    2.0129   -1.0599   -1.6627 N   0  0  0  0  0  0  0  0  0  0  0  0
    3.0023   -2.0882   -1.8180 C   0  0  0  0  0  0  0  0  0  0  0  0
    3.5223   -2.4202   -3.1783 C   0  0  0  0  0  0  0  0  0  0  0  0
    3.4712   -2.6858   -0.8117 O   0  0  0  0  0  0  0  0  0  0  0  0
    0.1142   -0.3634   -0.2971 C   0  0  0  0  0  0  0  0  0  0  0  0
   -0.5033    0.0823   -1.3032 O   0  0  0  0  0  0  0  0  0  0  0  0
   -0.5929   -0.6396    0.9221 N   0  0  0  0  0  0  0  0  0  0  0  0
   -2.0259   -0.3693    1.0852 C   0  0  1  0  0  0  0  0  0  0  0  0
   -2.7276   -1.5265    1.8240 C   0  0  0  0  0  0  0  0  0  0  0  0
   -2.1820   -1.8364    3.2314 C   0  0  0  0  0  0  0  0  0  0  0  0
   -1.9457   -0.6049    4.1208 C   0  0  0  0  0  0  0  0  0  0  0  0
   -3.1047    0.4007    4.0756 C   0  0  0  0  0  0  0  0  0  0  0  0
   -3.1750    1.1588    2.8144 N   0  0  0  0  0  0  0  0  0  0  0  0
   -4.2306    2.1645    2.6584 C   0  0  0  0  0  0  0  0  0  0  0  0
   -5.2110    1.7152    1.6093 C   0  0  0  0  0  0  0  0  0  0  0  0
   -5.0829    2.1536    0.2834 C   0  0  0  0  0  0  0  0  0  0  0  0
   -5.9526    1.6818   -0.7035 C   0  0  0  0  0  0  0  0  0  0  0  0
   -6.9615    0.7556   -0.3830 C   0  0  0  0  0  0  0  0  0  0  0  0
   -7.0794    0.3119    0.9465 C   0  0  0  0  0  0  0  0  0  0  0  0
   -6.2081    0.7837    1.9319 C   0  0  0  0  0  0  0  0  0  0  0  0
   -7.8821    0.2482   -1.4322 C   0  0  0  0  0  0  0  0  0  0  0  0
   -9.2522    0.0742   -1.1590 C   0  0  0  0  0  0  0  0  0  0  0  0
  -10.1166   -0.4040   -2.1486 C   0  0  0  0  0  0  0  0  0  0  0  0
   -9.6252   -0.7145   -3.4184 C   0  0  0  0  0  0  0  0  0  0  0  0
   -8.2679   -0.5471   -3.7017 C   0  0  0  0  0  0  0  0  0  0  0  0
   -7.3990   -0.0683   -2.7164 C   0  0  0  0  0  0  0  0  0  0  0  0
   -2.2343    0.9764    1.7370 C   0  0  0  0  0  0  0  0  0  0  0  0
   -1.6480    1.9828    1.2542 O   0  0  0  0  0  0  0  0  0  0  0  0
    4.4071    0.2672    1.1821 C   0  0  0  0  0  0  0  0  0  0  0  0
    5.7817    0.0431    1.2310 C   0  0  0  0  0  0  0  0  0  0  0  0
    6.5878    0.1653    0.0755 C   0  0  0  0  0  0  0  0  0  0  0  0
    8.0846   -0.1670    0.1579 C   0  0  0  0  0  0  0  0  0  0  0  0
    8.5109   -0.6951   -1.0515 F   0  0  0  0  0  0  0  0  0  0  0  0
    8.3764   -1.2315    1.1921 C   0  0  0  0  0  0  0  0  0  0  0  0
    8.0815   -2.5611    0.9047 O   0  0  0  0  0  0  0  0  0  0  0  0
    8.8398   -0.9292    2.3265 O   0  0  0  0  0  0  0  0  0  0  0  0
    8.8748    1.0836    0.4526 C   0  0  0  0  0  0  0  0  0  0  0  0
    8.3829    2.0292    1.3492 O   0  0  0  0  0  0  0  0  0  0  0  0
   10.0092    1.2524   -0.0708 O   0  0  0  0  0  0  0  0  0  0  0  0
    6.1791    0.4989   -5.6713 H   0  0  0  0  0  0  0  0  0  0  0  0
    7.7926    0.3419   -4.8743 H   0  0  0  0  0  0  0  0  0  0  0  0
    6.9661    1.9582   -4.9543 H   0  0  0  0  0  0  0  0  0  0  0  0
    4.1032    1.1537   -2.0763 H   0  0  0  0  0  0  0  0  0  0  0  0
    2.0279    1.5432   -0.8768 H   0  0  0  0  0  0  0  0  0  0  0  0
    1.9303    1.2330    0.8812 H   0  0  0  0  0  0  0  0  0  0  0  0
    1.9004   -1.2502    0.4486 H   0  0  0  0  0  0  0  0  0  0  0  0
    1.6960   -0.5545   -2.5215 H   0  0  0  0  0  0  0  0  0  0  0  0
    4.1937   -1.6068   -3.5239 H   0  0  0  0  0  0  0  0  0  0  0  0
    4.0898   -3.3747   -3.1564 H   0  0  0  0  0  0  0  0  0  0  0  0
    2.6763   -2.5235   -3.8894 H   0  0  0  0  0  0  0  0  0  0  0  0
   -0.0290   -0.8897    1.7646 H   0  0  0  0  0  0  0  0  0  0  0  0
   -2.5094   -0.3128    0.0854 H   0  0  0  0  0  0  0  0  0  0  0  0
   -3.8160   -1.3068    1.8928 H   0  0  0  0  0  0  0  0  0  0  0  0
   -2.6362   -2.4469    1.2070 H   0  0  0  0  0  0  0  0  0  0  0  0
   -1.2292   -2.4017    3.1443 H   0  0  0  0  0  0  0  0  0  0  0  0
   -2.9059   -2.5099    3.7401 H   0  0  0  0  0  0  0  0  0  0  0  0
   -1.8236   -0.9559    5.1685 H   0  0  0  0  0  0  0  0  0  0  0  0
   -0.9939   -0.1015    3.8468 H   0  0  0  0  0  0  0  0  0  0  0  0
   -4.0655   -0.1327    4.2440 H   0  0  0  0  0  0  0  0  0  0  0  0
   -2.9690    1.1194    4.9126 H   0  0  0  0  0  0  0  0  0  0  0  0
   -3.7819    3.1453    2.3881 H   0  0  0  0  0  0  0  0  0  0  0  0
   -4.7701    2.3196    3.6192 H   0  0  0  0  0  0  0  0  0  0  0  0
   -4.3056    2.8570    0.0115 H   0  0  0  0  0  0  0  0  0  0  0  0
   -5.8427    2.0504   -1.7155 H   0  0  0  0  0  0  0  0  0  0  0  0
   -7.8300   -0.4189    1.2200 H   0  0  0  0  0  0  0  0  0  0  0  0
   -6.3036    0.4140    2.9453 H   0  0  0  0  0  0  0  0  0  0  0  0
   -9.6579    0.3242   -0.1867 H   0  0  0  0  0  0  0  0  0  0  0  0
  -11.1694   -0.5309   -1.9313 H   0  0  0  0  0  0  0  0  0  0  0  0
  -10.2960   -1.0849   -4.1828 H   0  0  0  0  0  0  0  0  0  0  0  0
   -7.8874   -0.7919   -4.6850 H   0  0  0  0  0  0  0  0  0  0  0  0
   -6.3477    0.0371   -2.9529 H   0  0  0  0  0  0  0  0  0  0  0  0
    3.8148    0.1266    2.0781 H   0  0  0  0  0  0  0  0  0  0  0  0
    6.2083   -0.2460    2.1820 H   0  0  0  0  0  0  0  0  0  0  0  0
    8.2491   -3.2901    1.5877 H   0  0  0  0  0  0  0  0  0  0  0  0
    8.9145    2.8630    1.5689 H   0  0  0  0  0  0  0  0  0  0  0  0
  1  2  1  0
  2  3  1  0
  3  4  2  0
  3  5  1  0
  5  6  2  0
  6  7  1  0
  7  8  1  0
  8  9  1  0
  9 10  1  0
 10 11  1  0
 11 12  1  0
 11 13  2  0
  9 14  1  0
 14 15  2  0
 14 16  1  0
 16 17  1  0
 17 18  1  0
 18 19  1  0
 19 20  1  0
 20 21  1  0
 21 22  1  0
 22 23  1  0
 23 24  1  0
 24 25  2  0
 25 26  1  0
 26 27  2  0
 27 28  1  0
 28 29  2  0
 27 30  1  0
 30 31  2  0
 31 32  1  0
 32 33  2  0
 33 34  1  0
 34 35  2  0
 22 36  1  0
 36 37  2  0
  7 38  2  0
 38 39  1  0
 39 40  2  0
 40 41  1  0
 41 42  1  0
 41 43  1  0
 43 44  1  0
 43 45  2  0
 41 46  1  0
 46 47  1  0
 46 48  2  0
 40  5  1  0
 36 17  1  0
 29 24  1  0
 35 30  1  0
  1 49  1  0
  1 50  1  0
  1 51  1  0
  6 52  1  0
  8 53  1  0
  8 54  1  0
  9 55  1  1
 10 56  1  0
 12 57  1  0
 12 58  1  0
 12 59  1  0
 16 60  1  0
 17 61  1  6
 18 62  1  0
 18 63  1  0
 19 64  1  0
 19 65  1  0
 20 66  1  0
 20 67  1  0
 21 68  1  0
 21 69  1  0
 23 70  1  0
 23 71  1  0
 25 72  1  0
 26 73  1  0
 28 74  1  0
 29 75  1  0
 31 76  1  0
 32 77  1  0
 33 78  1  0
 34 79  1  0
 35 80  1  0
 38 81  1  0
 39 82  1  0
 44 83  1  0
 47 84  1  0
M  END
$$$$
