
     RDKit          3D

 97100  0  0  0  0  0  0  0  0999 V2000
   -1.0659    1.5963   -0.5236 C   0  0  1  0  0  0  0  0  0  0  0  0
   -2.2735    0.9745    0.2088 C   0  0  0  0  0  0  0  0  0  0  0  0
   -3.3177    0.3763   -0.7471 C   0  0  0  0  0  0  0  0  0  0  0  0
   -4.3640   -0.3811    0.0249 C   0  0  0  0  0  0  0  0  0  0  0  0
   -5.4907    0.2835    0.5305 C   0  0  0  0  0  0  0  0  0  0  0  0
   -6.4548   -0.4139    1.2848 C   0  0  0  0  0  0  0  0  0  0  0  0
   -7.5976    0.2186    1.7999 O   0  0  0  0  0  0  0  0  0  0  0  0
   -7.9047    1.5980    1.6247 C   0  0  0  0  0  0  0  0  0  0  0  0
   -6.2794   -1.7835    1.5395 C   0  0  0  0  0  0  0  0  0  0  0  0
   -7.2574   -2.4526    2.2924 O   0  0  0  0  0  0  0  0  0  0  0  0
   -7.2105   -3.8356    2.6280 C   0  0  0  0  0  0  0  0  0  0  0  0
   -5.1392   -2.4428    1.0419 C   0  0  0  0  0  0  0  0  0  0  0  0
   -4.1885   -1.7444    0.2962 C   0  0  0  0  0  0  0  0  0  0  0  0
   -0.4538    0.6455   -1.3983 O   0  0  0  0  0  0  0  0  0  0  0  0
    0.2523   -0.4767   -0.9525 C   0  0  0  0  0  0  0  0  0  0  0  0
    0.5165   -0.6295    0.2717 O   0  0  0  0  0  0  0  0  0  0  0  0
    0.6477   -1.5322   -1.9434 C   0  0  2  0  0  0  0  0  0  0  0  0
   -0.3225   -2.7235   -1.8392 C   0  0  0  0  0  0  0  0  0  0  0  0
    0.2233   -3.9116   -2.6310 C   0  0  0  0  0  0  0  0  0  0  0  0
    1.6146   -4.3569   -2.1372 C   0  0  0  0  0  0  0  0  0  0  0  0
    2.3314   -3.3122   -1.2638 C   0  0  0  0  0  0  0  0  0  0  0  0
    2.0518   -1.9442   -1.7346 N   0  0  0  0  0  0  0  0  0  0  0  0
    3.1042   -0.9699   -1.9475 C   0  0  0  0  0  0  0  0  0  0  0  0
    2.8633    0.0400   -2.6666 O   0  0  0  0  0  0  0  0  0  0  0  0
    4.4709   -1.1016   -1.2914 C   0  0  1  0  0  0  0  0  0  0  0  0
    5.4218    0.0583   -1.6755 C   0  0  0  0  0  0  0  0  0  0  0  0
    6.8396   -0.1460   -1.1387 C   0  0  0  0  0  0  0  0  0  0  0  0
    4.3184   -1.1993    0.2172 C   0  0  0  0  0  0  0  0  0  0  0  0
    4.8588   -2.2911    0.9086 C   0  0  0  0  0  0  0  0  0  0  0  0
    4.7305   -2.4031    2.3063 C   0  0  0  0  0  0  0  0  0  0  0  0
    5.2621   -3.5079    2.9904 O   0  0  0  0  0  0  0  0  0  0  0  0
    5.9466   -4.5970    2.3790 C   0  0  0  0  0  0  0  0  0  0  0  0
    4.0553   -1.3822    3.0236 C   0  0  0  0  0  0  0  0  0  0  0  0
    3.8731   -1.3980    4.4201 O   0  0  0  0  0  0  0  0  0  0  0  0
    4.3115   -2.4073    5.3227 C   0  0  0  0  0  0  0  0  0  0  0  0
    3.5281   -0.2787    2.3332 C   0  0  0  0  0  0  0  0  0  0  0  0
    2.8758    0.7179    3.0778 O   0  0  0  0  0  0  0  0  0  0  0  0
    2.3026    1.8975    2.5238 C   0  0  0  0  0  0  0  0  0  0  0  0
    3.6612   -0.1927    0.9372 C   0  0  0  0  0  0  0  0  0  0  0  0
   -1.4712    2.8350   -1.2932 C   0  0  0  0  0  0  0  0  0  0  0  0
   -1.5253    4.0756   -0.6351 C   0  0  0  0  0  0  0  0  0  0  0  0
   -1.9265    5.2334   -1.3129 C   0  0  0  0  0  0  0  0  0  0  0  0
   -1.9521    6.4435   -0.6001 O   0  0  0  0  0  0  0  0  0  0  0  0
   -2.2840    7.7178   -1.1508 C   0  0  0  0  0  0  0  0  0  0  0  0
   -1.1975    8.1986   -2.0599 C   0  0  0  0  0  0  0  0  0  0  0  0
    0.1320    8.1081   -1.6600 O   0  0  0  0  0  0  0  0  0  0  0  0
   -1.4869    8.7141   -3.1725 O   0  0  0  0  0  0  0  0  0  0  0  0
   -2.2909    5.1434   -2.6697 C   0  0  0  0  0  0  0  0  0  0  0  0
   -2.2530    3.9120   -3.3272 C   0  0  0  0  0  0  0  0  0  0  0  0
   -1.8501    2.7623   -2.6455 C   0  0  0  0  0  0  0  0  0  0  0  0
   -0.3163    1.8995    0.2398 H   0  0  0  0  0  0  0  0  0  0  0  0
   -2.7569    1.7469    0.8471 H   0  0  0  0  0  0  0  0  0  0  0  0
   -1.9036    0.1769    0.8890 H   0  0  0  0  0  0  0  0  0  0  0  0
   -2.8284   -0.3080   -1.4737 H   0  0  0  0  0  0  0  0  0  0  0  0
   -3.8023    1.1872   -1.3324 H   0  0  0  0  0  0  0  0  0  0  0  0
   -5.6068    1.3411    0.3342 H   0  0  0  0  0  0  0  0  0  0  0  0
   -8.0138    1.8307    0.5443 H   0  0  0  0  0  0  0  0  0  0  0  0
   -7.1070    2.2269    2.0734 H   0  0  0  0  0  0  0  0  0  0  0  0
   -8.8635    1.8233    2.1349 H   0  0  0  0  0  0  0  0  0  0  0  0
   -8.1090   -4.0944    3.2246 H   0  0  0  0  0  0  0  0  0  0  0  0
   -6.3063   -4.0506    3.2357 H   0  0  0  0  0  0  0  0  0  0  0  0
   -7.2071   -4.4527    1.7047 H   0  0  0  0  0  0  0  0  0  0  0  0
   -4.9763   -3.4952    1.2293 H   0  0  0  0  0  0  0  0  0  0  0  0
   -3.3123   -2.2669   -0.0688 H   0  0  0  0  0  0  0  0  0  0  0  0
    0.5504   -1.1137   -2.9702 H   0  0  0  0  0  0  0  0  0  0  0  0
   -1.3168   -2.4338   -2.2444 H   0  0  0  0  0  0  0  0  0  0  0  0
   -0.4625   -3.0279   -0.7776 H   0  0  0  0  0  0  0  0  0  0  0  0
   -0.4892   -4.7616   -2.5560 H   0  0  0  0  0  0  0  0  0  0  0  0
    0.2867   -3.6266   -3.7047 H   0  0  0  0  0  0  0  0  0  0  0  0
    1.5161   -5.2969   -1.5516 H   0  0  0  0  0  0  0  0  0  0  0  0
    2.2493   -4.5872   -3.0209 H   0  0  0  0  0  0  0  0  0  0  0  0
    1.9853   -3.4056   -0.2114 H   0  0  0  0  0  0  0  0  0  0  0  0
    3.4116   -3.5492   -1.2786 H   0  0  0  0  0  0  0  0  0  0  0  0
    4.9385   -2.0251   -1.6951 H   0  0  0  0  0  0  0  0  0  0  0  0
    5.4858    0.1260   -2.7839 H   0  0  0  0  0  0  0  0  0  0  0  0
    5.0273    1.0272   -1.2990 H   0  0  0  0  0  0  0  0  0  0  0  0
    7.2502   -1.1168   -1.4888 H   0  0  0  0  0  0  0  0  0  0  0  0
    6.8450   -0.1235   -0.0285 H   0  0  0  0  0  0  0  0  0  0  0  0
    7.4962    0.6701   -1.5071 H   0  0  0  0  0  0  0  0  0  0  0  0
    5.3781   -3.0554    0.3473 H   0  0  0  0  0  0  0  0  0  0  0  0
    5.2783   -5.1110    1.6561 H   0  0  0  0  0  0  0  0  0  0  0  0
    6.2447   -5.3224    3.1633 H   0  0  0  0  0  0  0  0  0  0  0  0
    6.8621   -4.2337    1.8661 H   0  0  0  0  0  0  0  0  0  0  0  0
    3.8332   -3.3785    5.0759 H   0  0  0  0  0  0  0  0  0  0  0  0
    4.0078   -2.1242    6.3512 H   0  0  0  0  0  0  0  0  0  0  0  0
    5.4184   -2.4901    5.2995 H   0  0  0  0  0  0  0  0  0  0  0  0
    1.4991    1.6291    1.8081 H   0  0  0  0  0  0  0  0  0  0  0  0
    3.0841    2.4999    2.0145 H   0  0  0  0  0  0  0  0  0  0  0  0
    1.8614    2.5045    3.3405 H   0  0  0  0  0  0  0  0  0  0  0  0
    3.2521    0.6527    0.4009 H   0  0  0  0  0  0  0  0  0  0  0  0
   -1.2549    4.1448    0.4118 H   0  0  0  0  0  0  0  0  0  0  0  0
   -2.3885    8.4451   -0.3193 H   0  0  0  0  0  0  0  0  0  0  0  0
   -3.2605    7.6675   -1.6793 H   0  0  0  0  0  0  0  0  0  0  0  0
    0.8785    8.4382   -2.2599 H   0  0  0  0  0  0  0  0  0  0  0  0
   -2.6100    6.0143   -3.2242 H   0  0  0  0  0  0  0  0  0  0  0  0
   -2.5417    3.8476   -4.3685 H   0  0  0  0  0  0  0  0  0  0  0  0
   -1.8424    1.8164   -3.1723 H   0  0  0  0  0  0  0  0  0  0  0  0
  1  2  1  0
  2  3  1  0
  3  4  1  0
  4  5  2  0
  5  6  1  0
  6  7  1  0
  7  8  1  0
  6  9  2  0
  9 10  1  0
 10 11  1  0
  9 12  1  0
 12 13  2  0
  1 14  1  0
 14 15  1  0
 15 16  2  0
 15 17  1  0
 17 18  1  0
 18 19  1  0
 19 20  1  0
 20 21  1  0
 21 22  1  0
 22 23  1  0
 23 24  2  0
 23 25  1  0
 25 26  1  0
 26 27  1  0
 25 28  1  0
 28 29  2  0
 29 30  1  0
 30 31  1  0
 31 32  1  0
 30 33  2  0
 33 34  1  0
 34 35  1  0
 33 36  1  0
 36 37  1  0
 37 38  1  0
 36 39  2  0
  1 40  1  0
 40 41  2  0
 41 42  1  0
 42 43  1  0
 43 44  1  0
 44 45  1  0
 45 46  1  0
 45 47  2  0
 42 48  2  0
 48 49  1  0
 49 50  2  0
 13  4  1  0
 22 17  1  0
 39 28  1  0
 50 40  1  0
  1 51  1  1
  2 52  1  0
  2 53  1  0
  3 54  1  0
  3 55  1  0
  5 56  1  0
  8 57  1  0
  8 58  1  0
  8 59  1  0
 11 60  1  0
 11 61  1  0
 11 62  1  0
 12 63  1  0
 13 64  1  0
 17 65  1  6
 18 66  1  0
 18 67  1  0
 19 68  1  0
 19 69  1  0
 20 70  1  0
 20 71  1  0
 21 72  1  0
 21 73  1  0
 25 74  1  6
 26 75  1  0
 26 76  1  0
 27 77  1  0
 27 78  1  0
 27 79  1  0
 29 80  1  0
 32 81  1  0
 32 82  1  0
 32 83  1  0
 35 84  1  0
 35 85  1  0
 35 86  1  0
 38 87  1  0
 38 88  1  0
 38 89  1  0
 39 90  1  0
 41 91  1  0
 44 92  1  0
 44 93  1  0
 46 94  1  0
 48 95  1  0
 49 96  1  0
 50 97  1  0
M  END
$$$$
