
     RDKit          3D

 47 50  0  0  0  0  0  0  0  0999 V2000
   -0.9664   -0.2860    1.1053 C   0  0  2  0  0  0  0  0  0  0  0  0
   -1.8198   -1.2329    1.9385 C   0  0  0  0  0  0  0  0  0  0  0  0
   -3.2362   -0.6322    1.8674 C   0  0  0  0  0  0  0  0  0  0  0  0
   -3.1765    0.5638    0.8761 C   0  0  1  0  0  0  0  0  0  0  0  0
   -4.3467    0.6443    0.1033 O   0  0  0  0  0  0  0  0  0  0  0  0
   -3.0216    1.8365    1.6273 C   0  0  0  0  0  0  0  0  0  0  0  0
   -2.8948    2.8692    2.2367 C   0  0  0  0  0  0  0  0  0  0  0  0
   -1.9148    0.2500    0.0121 C   0  0  2  0  0  0  0  0  0  0  0  0
   -2.2043   -0.8254   -1.1080 C   0  0  0  0  0  0  0  0  0  0  0  0
   -3.1342   -0.3746   -2.2463 C   0  0  0  0  0  0  0  0  0  0  0  0
   -1.2217    1.4286   -0.6348 C   0  0  0  0  0  0  0  0  0  0  0  0
    0.1033    1.4060   -0.8634 C   0  0  0  0  0  0  0  0  0  0  0  0
    0.9987    0.3201   -0.3178 C   0  0  0  0  0  0  0  0  0  0  0  0
    2.3397    0.2988   -0.5664 C   0  0  0  0  0  0  0  0  0  0  0  0
    2.9860    1.3066   -1.5126 C   0  0  0  0  0  0  0  0  0  0  0  0
    4.5185    1.3351   -1.4447 C   0  0  0  0  0  0  0  0  0  0  0  0
    5.0879   -0.0390   -1.3147 C   0  0  0  0  0  0  0  0  0  0  0  0
    6.1702   -0.3378   -1.8854 O   0  0  0  0  0  0  0  0  0  0  0  0
    4.4408   -0.9964   -0.4169 C   0  0  0  0  0  0  0  0  0  0  0  0
    3.1842   -0.8041    0.0071 C   0  0  0  0  0  0  0  0  0  0  0  0
    2.6127   -1.7740    1.0129 C   0  0  0  0  0  0  0  0  0  0  0  0
    1.3311   -1.2313    1.6406 C   0  0  0  0  0  0  0  0  0  0  0  0
    0.3678   -0.7955    0.5290 C   0  0  1  0  0  0  0  0  0  0  0  0
   -0.6957    0.5584    1.7874 H   0  0  0  0  0  0  0  0  0  0  0  0
   -1.4577   -1.2742    2.9889 H   0  0  0  0  0  0  0  0  0  0  0  0
   -1.8054   -2.2582    1.5088 H   0  0  0  0  0  0  0  0  0  0  0  0
   -3.5837   -0.3207    2.8780 H   0  0  0  0  0  0  0  0  0  0  0  0
   -3.9402   -1.4080    1.4929 H   0  0  0  0  0  0  0  0  0  0  0  0
   -5.1193    0.6937    0.7265 H   0  0  0  0  0  0  0  0  0  0  0  0
   -2.7827    3.7754    2.7713 H   0  0  0  0  0  0  0  0  0  0  0  0
   -1.2550   -1.1059   -1.6079 H   0  0  0  0  0  0  0  0  0  0  0  0
   -2.6203   -1.7566   -0.6699 H   0  0  0  0  0  0  0  0  0  0  0  0
   -4.1989   -0.5314   -1.9804 H   0  0  0  0  0  0  0  0  0  0  0  0
   -2.9400   -0.9948   -3.1473 H   0  0  0  0  0  0  0  0  0  0  0  0
   -2.9683    0.6866   -2.5217 H   0  0  0  0  0  0  0  0  0  0  0  0
   -1.8137    2.2534   -1.0124 H   0  0  0  0  0  0  0  0  0  0  0  0
    0.5063    2.2364   -1.4222 H   0  0  0  0  0  0  0  0  0  0  0  0
    2.6526    2.3368   -1.2711 H   0  0  0  0  0  0  0  0  0  0  0  0
    2.6730    1.0650   -2.5516 H   0  0  0  0  0  0  0  0  0  0  0  0
    4.8373    1.9274   -0.5595 H   0  0  0  0  0  0  0  0  0  0  0  0
    4.9192    1.8328   -2.3546 H   0  0  0  0  0  0  0  0  0  0  0  0
    5.0089   -1.8542   -0.0751 H   0  0  0  0  0  0  0  0  0  0  0  0
    3.3511   -1.9655    1.8224 H   0  0  0  0  0  0  0  0  0  0  0  0
    2.3979   -2.7391    0.5038 H   0  0  0  0  0  0  0  0  0  0  0  0
    1.5725   -0.3698    2.3027 H   0  0  0  0  0  0  0  0  0  0  0  0
    0.8707   -2.0310    2.2601 H   0  0  0  0  0  0  0  0  0  0  0  0
    0.1873   -1.6864   -0.1083 H   0  0  0  0  0  0  0  0  0  0  0  0
  1  2  1  0
  2  3  1  0
  3  4  1  0
  4  5  1  0
  4  6  1  1
  6  7  3  0
  4  8  1  0
  8  9  1  6
  9 10  1  0
  8 11  1  0
 11 12  2  0
 12 13  1  0
 13 14  2  0
 14 15  1  0
 15 16  1  0
 16 17  1  0
 17 18  2  0
 17 19  1  0
 19 20  2  0
 20 21  1  0
 21 22  1  0
 22 23  1  0
  8  1  1  0
 23 13  1  0
 23  1  1  0
 20 14  1  0
  1 24  1  1
  2 25  1  0
  2 26  1  0
  3 27  1  0
  3 28  1  0
  5 29  1  0
  7 30  1  0
  9 31  1  0
  9 32  1  0
 10 33  1  0
 10 34  1  0
 10 35  1  0
 11 36  1  0
 12 37  1  0
 15 38  1  0
 15 39  1  0
 16 40  1  0
 16 41  1  0
 19 42  1  0
 21 43  1  0
 21 44  1  0
 22 45  1  0
 22 46  1  0
 23 47  1  6
M  END
$$$$
