
     RDKit          3D

 21 21  0  0  0  0  0  0  0  0999 V2000
   -4.0536    0.5948   -0.4537 O   0  0  0  0  0  0  0  0  0  0  0  0
   -2.9454   -0.2355   -0.5917 C   0  0  0  0  0  0  0  0  0  0  0  0
   -2.6324   -0.6751   -1.7305 O   0  0  0  0  0  0  0  0  0  0  0  0
   -2.1486   -0.5930    0.5928 C   0  0  0  0  0  0  0  0  0  0  0  0
   -2.4750   -0.1284    1.7179 O   0  0  0  0  0  0  0  0  0  0  0  0
   -0.9290   -1.4630    0.4850 C   0  0  0  0  0  0  0  0  0  0  0  0
    0.2811   -0.6287    0.1641 C   0  0  0  0  0  0  0  0  0  0  0  0
    0.9625    0.0504    1.1877 C   0  0  0  0  0  0  0  0  0  0  0  0
    2.0703    0.8491    0.8883 C   0  0  0  0  0  0  0  0  0  0  0  0
    2.5037    0.9831   -0.4377 C   0  0  0  0  0  0  0  0  0  0  0  0
    3.6060    1.7762   -0.7482 O   0  0  0  0  0  0  0  0  0  0  0  0
    1.8225    0.3160   -1.4610 C   0  0  0  0  0  0  0  0  0  0  0  0
    0.7143   -0.4834   -1.1643 C   0  0  0  0  0  0  0  0  0  0  0  0
   -4.6137    0.8520   -1.2578 H   0  0  0  0  0  0  0  0  0  0  0  0
   -1.0833   -2.2445   -0.2905 H   0  0  0  0  0  0  0  0  0  0  0  0
   -0.7693   -2.0000    1.4457 H   0  0  0  0  0  0  0  0  0  0  0  0
    0.6341   -0.0381    2.2160 H   0  0  0  0  0  0  0  0  0  0  0  0
    2.5889    1.3651    1.6863 H   0  0  0  0  0  0  0  0  0  0  0  0
    4.1201    2.2726   -0.0298 H   0  0  0  0  0  0  0  0  0  0  0  0
    2.1510    0.4190   -2.4874 H   0  0  0  0  0  0  0  0  0  0  0  0
    0.1958   -0.9888   -1.9694 H   0  0  0  0  0  0  0  0  0  0  0  0
  1  2  1  0
  2  3  2  0
  2  4  1  0
  4  5  2  0
  4  6  1  0
  6  7  1  0
  7  8  2  0
  8  9  1  0
  9 10  2  0
 10 11  1  0
 10 12  1  0
 12 13  2  0
 13  7  1  0
  1 14  1  0
  6 15  1  0
  6 16  1  0
  8 17  1  0
  9 18  1  0
 11 19  1  0
 12 20  1  0
 13 21  1  0
M  END
$$$$
