
     RDKit          3D

 43 44  0  0  0  0  0  0  0  0999 V2000
   -1.4132    1.6318   -0.6810 O   0  0  0  0  0  0  0  0  0  0  0  0
   -1.1667    0.4242   -0.4113 C   0  0  0  0  0  0  0  0  0  0  0  0
    0.1876   -0.0095   -0.2364 N   0  0  0  0  0  0  0  0  0  0  0  0
    1.3092    0.9214   -0.3582 C   0  0  0  0  0  0  0  0  0  0  0  0
    2.6423    0.2039   -0.1229 C   0  0  0  0  0  0  0  0  0  0  0  0
    3.8214    1.1741   -0.2491 C   0  0  0  0  0  0  0  0  0  0  0  0
    5.1239    0.4565   -0.0156 C   0  0  0  0  0  0  0  0  0  0  0  0
    5.6467    0.3410    1.2835 C   0  0  0  0  0  0  0  0  0  0  0  0
    6.8402   -0.3541    1.5030 C   0  0  0  0  0  0  0  0  0  0  0  0
    7.5137   -0.9458    0.4307 C   0  0  0  0  0  0  0  0  0  0  0  0
    6.9927   -0.8470   -0.8624 C   0  0  0  0  0  0  0  0  0  0  0  0
    5.7995   -0.1529   -1.0863 C   0  0  0  0  0  0  0  0  0  0  0  0
   -2.2391   -0.5202   -0.2844 N   0  0  0  0  0  0  0  0  0  0  0  0
   -3.6471   -0.1327   -0.4211 C   0  0  0  0  0  0  0  0  0  0  0  0
   -4.1171    0.6030    0.8481 C   0  0  0  0  0  0  0  0  0  0  0  0
   -5.6016    0.9779    0.7513 C   0  0  0  0  0  0  0  0  0  0  0  0
   -6.4676   -0.2601    0.4896 C   0  0  0  0  0  0  0  0  0  0  0  0
   -6.0040   -0.9985   -0.7717 C   0  0  0  0  0  0  0  0  0  0  0  0
   -4.5210   -1.3769   -0.6719 C   0  0  0  0  0  0  0  0  0  0  0  0
    0.3650   -1.0157   -0.0148 H   0  0  0  0  0  0  0  0  0  0  0  0
    1.3035    1.3673   -1.3768 H   0  0  0  0  0  0  0  0  0  0  0  0
    1.1899    1.7355    0.3898 H   0  0  0  0  0  0  0  0  0  0  0  0
    2.6400   -0.2451    0.8950 H   0  0  0  0  0  0  0  0  0  0  0  0
    2.7537   -0.6129   -0.8701 H   0  0  0  0  0  0  0  0  0  0  0  0
    3.8224    1.6341   -1.2619 H   0  0  0  0  0  0  0  0  0  0  0  0
    3.7095    1.9989    0.4888 H   0  0  0  0  0  0  0  0  0  0  0  0
    5.1297    0.7870    2.1242 H   0  0  0  0  0  0  0  0  0  0  0  0
    7.2411   -0.4369    2.5049 H   0  0  0  0  0  0  0  0  0  0  0  0
    8.4366   -1.4845    0.6025 H   0  0  0  0  0  0  0  0  0  0  0  0
    7.5117   -1.3112   -1.6910 H   0  0  0  0  0  0  0  0  0  0  0  0
    5.4016   -0.0915   -2.0917 H   0  0  0  0  0  0  0  0  0  0  0  0
   -1.9948   -1.5230   -0.1178 H   0  0  0  0  0  0  0  0  0  0  0  0
   -3.7517    0.5445   -1.2990 H   0  0  0  0  0  0  0  0  0  0  0  0
   -3.9551   -0.0428    1.7395 H   0  0  0  0  0  0  0  0  0  0  0  0
   -3.5236    1.5316    0.9880 H   0  0  0  0  0  0  0  0  0  0  0  0
   -5.7476    1.7160   -0.0679 H   0  0  0  0  0  0  0  0  0  0  0  0
   -5.9222    1.4547    1.7025 H   0  0  0  0  0  0  0  0  0  0  0  0
   -7.5264    0.0528    0.3632 H   0  0  0  0  0  0  0  0  0  0  0  0
   -6.4147   -0.9449    1.3645 H   0  0  0  0  0  0  0  0  0  0  0  0
   -6.1668   -0.3543   -1.6637 H   0  0  0  0  0  0  0  0  0  0  0  0
   -6.6102   -1.9208   -0.9002 H   0  0  0  0  0  0  0  0  0  0  0  0
   -4.3844   -2.1109    0.1533 H   0  0  0  0  0  0  0  0  0  0  0  0
   -4.2068   -1.8641   -1.6204 H   0  0  0  0  0  0  0  0  0  0  0  0
  1  2  2  0
  2  3  1  0
  3  4  1  0
  4  5  1  0
  5  6  1  0
  6  7  1  0
  7  8  2  0
  8  9  1  0
  9 10  2  0
 10 11  1  0
 11 12  2  0
  2 13  1  0
 13 14  1  0
 14 15  1  0
 15 16  1  0
 16 17  1  0
 17 18  1  0
 18 19  1  0
 12  7  1  0
 19 14  1  0
  3 20  1  0
  4 21  1  0
  4 22  1  0
  5 23  1  0
  5 24  1  0
  6 25  1  0
  6 26  1  0
  8 27  1  0
  9 28  1  0
 10 29  1  0
 11 30  1  0
 12 31  1  0
 13 32  1  0
 14 33  1  0
 15 34  1  0
 15 35  1  0
 16 36  1  0
 16 37  1  0
 17 38  1  0
 17 39  1  0
 18 40  1  0
 18 41  1  0
 19 42  1  0
 19 43  1  0
M  END
$$$$
