
     RDKit          3D

 77 82  0  0  0  0  0  0  0  0999 V2000
    4.3813   -0.4610   -3.1878 C   0  0  0  0  0  0  0  0  0  0  0  0
    3.7942   -0.9569   -1.8568 C   0  0  2  0  0  0  0  0  0  0  0  0
    2.2934   -1.3202   -1.9760 C   0  0  0  0  0  0  0  0  0  0  0  0
    1.5925   -0.4321   -0.9494 C   0  0  1  0  0  0  0  0  0  0  0  0
    0.1953   -0.8479   -0.4253 C   0  0  2  0  0  0  0  0  0  0  0  0
   -0.7642   -1.0666   -1.5725 C   0  0  0  0  0  0  0  0  0  0  0  0
   -2.0795   -0.7886   -1.5110 C   0  0  0  0  0  0  0  0  0  0  0  0
   -2.9384   -1.1133   -2.7119 C   0  0  0  0  0  0  0  0  0  0  0  0
   -2.6775   -0.1534   -0.2898 C   0  0  0  0  0  0  0  0  0  0  0  0
   -3.9975    0.1593   -0.2612 C   0  0  0  0  0  0  0  0  0  0  0  0
   -4.5702    0.7892    0.9330 C   0  0  0  0  0  0  0  0  0  0  0  0
   -3.7801    1.2724    1.9264 C   0  0  0  0  0  0  0  0  0  0  0  0
   -2.2918    1.2348    1.8531 C   0  0  0  0  0  0  0  0  0  0  0  0
   -1.8064    0.0198    0.9823 C   0  0  1  0  0  0  0  0  0  0  0  0
   -1.9662   -1.2799    1.8157 C   0  0  0  0  0  0  0  0  0  0  0  0
   -0.3255    0.2771    0.5209 C   0  0  1  0  0  0  0  0  0  0  0  0
    0.6948    0.6600    1.6496 C   0  0  1  0  0  0  0  0  0  0  0  0
    0.7302   -0.3076    2.6631 O   0  0  0  0  0  0  0  0  0  0  0  0
    2.1215    0.9190    1.0866 C   0  0  0  0  0  0  0  0  0  0  0  0
    2.6303   -0.2312    0.1700 C   0  0  1  0  0  0  0  0  0  0  0  0
    2.8500   -1.5244    1.0289 C   0  0  0  0  0  0  0  0  0  0  0  0
    3.9149    0.0794   -0.6862 C   0  0  2  0  0  0  0  0  0  0  0  0
    3.8253    1.3782   -1.2437 O   0  0  0  0  0  0  0  0  0  0  0  0
    5.2558   -0.0908    0.0557 C   0  0  0  0  0  0  0  0  0  0  0  0
    5.6166   -1.2039    0.4126 O   0  0  0  0  0  0  0  0  0  0  0  0
    6.1613    1.0840    0.3502 C   0  0  0  0  0  0  0  0  0  0  0  0
    7.4343    0.6568    0.8355 O   0  0  0  0  0  0  0  0  0  0  0  0
    8.4119    0.0810    0.0158 C   0  0  0  0  0  0  0  0  0  0  0  0
    9.6988   -0.3732    0.6155 C   0  0  0  0  0  0  0  0  0  0  0  0
    8.1997   -0.0965   -1.2147 O   0  0  0  0  0  0  0  0  0  0  0  0
   -4.6195    1.9892    2.7523 C   0  0  0  0  0  0  0  0  0  0  0  0
   -5.8784    1.9025    2.2676 N   0  0  0  0  0  0  0  0  0  0  0  0
   -5.8459    1.1656    1.1632 N   0  0  0  0  0  0  0  0  0  0  0  0
   -7.0091    0.8784    0.3695 C   0  0  0  0  0  0  0  0  0  0  0  0
   -7.1984   -0.3941   -0.1982 C   0  0  0  0  0  0  0  0  0  0  0  0
   -8.3435   -0.6668   -0.9528 C   0  0  0  0  0  0  0  0  0  0  0  0
   -9.3137    0.3220   -1.1359 C   0  0  0  0  0  0  0  0  0  0  0  0
   -9.1436    1.5828   -0.5582 C   0  0  0  0  0  0  0  0  0  0  0  0
   -7.9998    1.8591    0.1973 C   0  0  0  0  0  0  0  0  0  0  0  0
    4.3492   -1.2775   -3.9402 H   0  0  0  0  0  0  0  0  0  0  0  0
    3.8045    0.4024   -3.5830 H   0  0  0  0  0  0  0  0  0  0  0  0
    5.4401   -0.1572   -3.0449 H   0  0  0  0  0  0  0  0  0  0  0  0
    4.3405   -1.8927   -1.6032 H   0  0  0  0  0  0  0  0  0  0  0  0
    1.8950   -1.1300   -2.9971 H   0  0  0  0  0  0  0  0  0  0  0  0
    2.1331   -2.3928   -1.7290 H   0  0  0  0  0  0  0  0  0  0  0  0
    1.4414    0.5467   -1.4677 H   0  0  0  0  0  0  0  0  0  0  0  0
    0.2680   -1.8129    0.1073 H   0  0  0  0  0  0  0  0  0  0  0  0
   -0.3787   -1.5637   -2.4537 H   0  0  0  0  0  0  0  0  0  0  0  0
   -2.3698   -1.6238   -3.5187 H   0  0  0  0  0  0  0  0  0  0  0  0
   -3.7661   -1.7888   -2.4093 H   0  0  0  0  0  0  0  0  0  0  0  0
   -3.3581   -0.1766   -3.1349 H   0  0  0  0  0  0  0  0  0  0  0  0
   -4.6366    0.0107   -1.1181 H   0  0  0  0  0  0  0  0  0  0  0  0
   -1.9609    2.1917    1.3939 H   0  0  0  0  0  0  0  0  0  0  0  0
   -1.8764    1.1829    2.8828 H   0  0  0  0  0  0  0  0  0  0  0  0
   -3.0399   -1.4681    2.0313 H   0  0  0  0  0  0  0  0  0  0  0  0
   -1.5918   -2.1705    1.2733 H   0  0  0  0  0  0  0  0  0  0  0  0
   -1.4615   -1.2147    2.7982 H   0  0  0  0  0  0  0  0  0  0  0  0
   -0.3814    1.1947   -0.1129 H   0  0  0  0  0  0  0  0  0  0  0  0
    0.3584    1.6237    2.0971 H   0  0  0  0  0  0  0  0  0  0  0  0
    1.1598    0.1135    3.4531 H   0  0  0  0  0  0  0  0  0  0  0  0
    2.8384    1.0885    1.9193 H   0  0  0  0  0  0  0  0  0  0  0  0
    2.0561    1.8696    0.5180 H   0  0  0  0  0  0  0  0  0  0  0  0
    3.3010   -2.3482    0.4406 H   0  0  0  0  0  0  0  0  0  0  0  0
    3.5195   -1.3042    1.8870 H   0  0  0  0  0  0  0  0  0  0  0  0
    1.9258   -1.9445    1.4570 H   0  0  0  0  0  0  0  0  0  0  0  0
    3.9456    2.0509   -0.5268 H   0  0  0  0  0  0  0  0  0  0  0  0
    5.6818    1.7122    1.1296 H   0  0  0  0  0  0  0  0  0  0  0  0
    6.3058    1.7027   -0.5618 H   0  0  0  0  0  0  0  0  0  0  0  0
   10.5342   -0.1946   -0.0939 H   0  0  0  0  0  0  0  0  0  0  0  0
    9.6372   -1.4573    0.8446 H   0  0  0  0  0  0  0  0  0  0  0  0
    9.8987    0.1866    1.5530 H   0  0  0  0  0  0  0  0  0  0  0  0
   -4.3328    2.5717    3.6174 H   0  0  0  0  0  0  0  0  0  0  0  0
   -6.4723   -1.1809   -0.0398 H   0  0  0  0  0  0  0  0  0  0  0  0
   -8.4826   -1.6476   -1.3889 H   0  0  0  0  0  0  0  0  0  0  0  0
  -10.2002    0.1090   -1.7191 H   0  0  0  0  0  0  0  0  0  0  0  0
   -9.8988    2.3461   -0.6948 H   0  0  0  0  0  0  0  0  0  0  0  0
   -7.8793    2.8406    0.6383 H   0  0  0  0  0  0  0  0  0  0  0  0
  1  2  1  0
  2  3  1  0
  3  4  1  0
  4  5  1  0
  5  6  1  0
  6  7  2  0
  7  8  1  0
  7  9  1  0
  9 10  2  0
 10 11  1  0
 11 12  2  0
 12 13  1  0
 13 14  1  0
 14 15  1  1
 14 16  1  0
 16 17  1  0
 17 18  1  0
 17 19  1  0
 19 20  1  0
 20 21  1  1
 20 22  1  0
 22 23  1  6
 22 24  1  0
 24 25  2  0
 24 26  1  0
 26 27  1  0
 27 28  1  0
 28 29  1  0
 28 30  2  0
 12 31  1  0
 31 32  2  0
 32 33  1  0
 33 34  1  0
 34 35  2  0
 35 36  1  0
 36 37  2  0
 37 38  1  0
 38 39  2  0
 22  2  1  0
 39 34  1  0
 20  4  1  0
 16  5  1  0
 14  9  1  0
 33 11  1  0
  1 40  1  0
  1 41  1  0
  1 42  1  0
  2 43  1  1
  3 44  1  0
  3 45  1  0
  4 46  1  6
  5 47  1  1
  6 48  1  0
  8 49  1  0
  8 50  1  0
  8 51  1  0
 10 52  1  0
 13 53  1  0
 13 54  1  0
 15 55  1  0
 15 56  1  0
 15 57  1  0
 16 58  1  6
 17 59  1  1
 18 60  1  0
 19 61  1  0
 19 62  1  0
 21 63  1  0
 21 64  1  0
 21 65  1  0
 23 66  1  0
 26 67  1  0
 26 68  1  0
 29 69  1  0
 29 70  1  0
 29 71  1  0
 31 72  1  0
 35 73  1  0
 36 74  1  0
 37 75  1  0
 38 76  1  0
 39 77  1  0
M  END
$$$$
