
     RDKit          3D

 33 35  0  0  0  0  0  0  0  0999 V2000
   -4.1822   -1.9366   -0.1462 N   0  0  0  0  0  0  0  0  0  0  0  0
   -3.0166   -1.2151   -1.2004 S   0  0  0  0  0  6  0  0  0  0  0  0
   -1.9721   -2.2398   -1.5456 O   0  0  0  0  0  0  0  0  0  0  0  0
   -3.6826   -0.7695   -2.4722 O   0  0  0  0  0  0  0  0  0  0  0  0
   -2.2639    0.1694   -0.3957 C   0  0  0  0  0  0  0  0  0  0  0  0
   -0.9508    0.0498    0.0855 C   0  0  0  0  0  0  0  0  0  0  0  0
   -0.3063    1.1292    0.7212 C   0  0  0  0  0  0  0  0  0  0  0  0
   -1.0279    2.3195    0.9215 C   0  0  0  0  0  0  0  0  0  0  0  0
   -2.3369    2.4432    0.4543 C   0  0  0  0  0  0  0  0  0  0  0  0
   -2.9600    1.3805   -0.2059 C   0  0  0  0  0  0  0  0  0  0  0  0
   -4.6170    1.6072   -0.7554 Cl  0  0  0  0  0  0  0  0  0  0  0  0
    1.1071    0.9670    1.2722 C   0  0  1  0  0  0  0  0  0  0  0  0
    1.7033    2.2006    1.5922 O   0  0  0  0  0  0  0  0  0  0  0  0
    1.0701    0.1287    2.4758 N   0  0  0  0  0  0  0  0  0  0  0  0
    1.8825   -1.0180    2.2634 C   0  0  0  0  0  0  0  0  0  0  0  0
    2.0582   -1.9265    3.1171 O   0  0  0  0  0  0  0  0  0  0  0  0
    2.4560   -0.9755    0.9433 C   0  0  0  0  0  0  0  0  0  0  0  0
    3.2901   -1.8800    0.2887 C   0  0  0  0  0  0  0  0  0  0  0  0
    3.6810   -1.5834   -1.0272 C   0  0  0  0  0  0  0  0  0  0  0  0
    3.2315   -0.4038   -1.6548 C   0  0  0  0  0  0  0  0  0  0  0  0
    2.3887    0.4892   -0.9707 C   0  0  0  0  0  0  0  0  0  0  0  0
    2.0116    0.1818    0.3400 C   0  0  0  0  0  0  0  0  0  0  0  0
   -4.6052   -2.7398   -0.6629 H   0  0  0  0  0  0  0  0  0  0  0  0
   -4.9448   -1.2383   -0.0014 H   0  0  0  0  0  0  0  0  0  0  0  0
   -0.4274   -0.8902   -0.0301 H   0  0  0  0  0  0  0  0  0  0  0  0
   -0.5864    3.1572    1.4453 H   0  0  0  0  0  0  0  0  0  0  0  0
   -2.8723    3.3707    0.6143 H   0  0  0  0  0  0  0  0  0  0  0  0
    1.7931    2.7169    0.7483 H   0  0  0  0  0  0  0  0  0  0  0  0
    0.5565    0.3509    3.3577 H   0  0  0  0  0  0  0  0  0  0  0  0
    3.6247   -2.7859    0.7772 H   0  0  0  0  0  0  0  0  0  0  0  0
    4.3279   -2.2657   -1.5631 H   0  0  0  0  0  0  0  0  0  0  0  0
    3.5348   -0.1855   -2.6704 H   0  0  0  0  0  0  0  0  0  0  0  0
    2.0353    1.3917   -1.4519 H   0  0  0  0  0  0  0  0  0  0  0  0
  1  2  1  0
  2  3  2  0
  2  4  2  0
  2  5  1  0
  5  6  2  0
  6  7  1  0
  7  8  2  0
  8  9  1  0
  9 10  2  0
 10 11  1  0
  7 12  1  0
 12 13  1  1
 12 14  1  0
 14 15  1  0
 15 16  2  0
 15 17  1  0
 17 18  2  0
 18 19  1  0
 19 20  2  0
 20 21  1  0
 21 22  2  0
 10  5  1  0
 22 12  1  0
 22 17  1  0
  1 23  1  0
  1 24  1  0
  6 25  1  0
  8 26  1  0
  9 27  1  0
 13 28  1  0
 14 29  1  0
 18 30  1  0
 19 31  1  0
 20 32  1  0
 21 33  1  0
M  END
$$$$
