
     RDKit          3D

 16 15  0  0  0  0  0  0  0  0999 V2000
   -1.9657    0.1984    0.7156 C   0  0  0  0  0  0  0  0  0  0  0  0
   -1.2378   -0.3573   -0.5081 C   0  0  0  0  0  0  0  0  0  0  0  0
    0.2374   -0.6804   -0.2255 C   0  0  0  0  0  0  0  0  0  0  0  0
    1.0897    0.5814   -0.0308 C   0  0  0  0  0  0  0  0  0  0  0  0
    2.5413    0.2300    0.0997 C   0  0  0  0  0  0  0  0  0  0  0  0
    2.9382   -0.4172    1.0558 O   0  0  0  0  0  0  0  0  0  0  0  0
   -1.5712    1.1993    0.9868 H   0  0  0  0  0  0  0  0  0  0  0  0
   -3.0466    0.3043    0.4848 H   0  0  0  0  0  0  0  0  0  0  0  0
   -1.8552   -0.4905    1.5799 H   0  0  0  0  0  0  0  0  0  0  0  0
   -1.3174    0.3653   -1.3492 H   0  0  0  0  0  0  0  0  0  0  0  0
   -1.7484   -1.2939   -0.8210 H   0  0  0  0  0  0  0  0  0  0  0  0
    0.6362   -1.2518   -1.0927 H   0  0  0  0  0  0  0  0  0  0  0  0
    0.3132   -1.3331    0.6721 H   0  0  0  0  0  0  0  0  0  0  0  0
    0.7736    1.1263    0.8835 H   0  0  0  0  0  0  0  0  0  0  0  0
    0.9634    1.2561   -0.9049 H   0  0  0  0  0  0  0  0  0  0  0  0
    3.2492    0.5631   -0.6523 H   0  0  0  0  0  0  0  0  0  0  0  0
  1  2  1  0
  2  3  1  0
  3  4  1  0
  4  5  1  0
  5  6  2  0
  1  7  1  0
  1  8  1  0
  1  9  1  0
  2 10  1  0
  2 11  1  0
  3 12  1  0
  3 13  1  0
  4 14  1  0
  4 15  1  0
  5 16  1  0
M  END
$$$$
