
     RDKit          3D

 16 16  0  0  0  0  0  0  0  0999 V2000
    2.2429   -0.3879    0.5597 C   0  0  0  0  0  0  0  0  0  0  0  0
    0.8386    0.0027    0.2055 C   0  0  0  0  0  0  0  0  0  0  0  0
    0.5497    1.3173   -0.1935 C   0  0  0  0  0  0  0  0  0  0  0  0
   -0.7524    1.6716   -0.5588 C   0  0  0  0  0  0  0  0  0  0  0  0
   -1.7708    0.7146   -0.5407 C   0  0  0  0  0  0  0  0  0  0  0  0
   -1.4903   -0.6026   -0.1626 C   0  0  0  0  0  0  0  0  0  0  0  0
   -2.5129   -1.5485   -0.1572 O   0  0  0  0  0  0  0  0  0  0  0  0
   -0.1844   -0.9593    0.2047 C   0  0  0  0  0  0  0  0  0  0  0  0
    2.2440   -1.2114    1.3054 H   0  0  0  0  0  0  0  0  0  0  0  0
    2.7735   -0.7264   -0.3545 H   0  0  0  0  0  0  0  0  0  0  0  0
    2.7905    0.4731    0.9989 H   0  0  0  0  0  0  0  0  0  0  0  0
    1.3311    2.0668   -0.2211 H   0  0  0  0  0  0  0  0  0  0  0  0
   -0.9716    2.6879   -0.8596 H   0  0  0  0  0  0  0  0  0  0  0  0
   -2.7769    0.9949   -0.8256 H   0  0  0  0  0  0  0  0  0  0  0  0
   -2.3429   -2.5108    0.1108 H   0  0  0  0  0  0  0  0  0  0  0  0
    0.0319   -1.9821    0.4886 H   0  0  0  0  0  0  0  0  0  0  0  0
  1  2  1  0
  2  3  2  0
  3  4  1  0
  4  5  2  0
  5  6  1  0
  6  7  1  0
  6  8  2  0
  8  2  1  0
  1  9  1  0
  1 10  1  0
  1 11  1  0
  3 12  1  0
  4 13  1  0
  5 14  1  0
  7 15  1  0
  8 16  1  0
M  END
$$$$
