
     RDKit          3D

 34 34  0  0  0  0  0  0  0  0999 V2000
   -1.6678    0.4001    0.7920 C   0  0  1  0  0  0  0  0  0  0  0  0
   -2.6120    0.3489    2.0007 C   0  0  0  0  0  0  0  0  0  0  0  0
   -2.7578   -0.9676    2.4674 O   0  0  0  0  0  0  0  0  0  0  0  0
   -0.4499   -0.2391    1.1256 O   0  0  0  0  0  0  0  0  0  0  0  0
    0.6117    0.0696    0.2196 C   0  0  2  0  0  0  0  0  0  0  0  0
    1.5603   -1.0530    0.3245 N   0  0  0  0  0  0  0  0  0  0  0  0
    2.7903   -1.1733   -0.1016 C   0  0  0  0  0  0  0  0  0  0  0  0
    3.5471   -0.0705   -0.7841 C   0  0  0  0  0  0  0  0  0  0  0  0
    3.4608   -2.3719    0.1255 O   0  0  0  0  0  0  0  0  0  0  0  0
    1.2944    1.3413    0.7265 C   0  0  0  0  0  0  0  0  0  0  0  0
    1.7053    2.3390   -0.1555 O   0  0  0  0  0  0  0  0  0  0  0  0
    1.5440    1.4883    1.9910 N   0  0  0  0  0  0  0  0  0  0  0  0
    0.0962    0.1459   -1.2774 C   0  0  2  0  0  0  0  0  0  0  0  0
   -0.1877    1.4715   -1.6556 O   0  0  0  0  0  0  0  0  0  0  0  0
   -1.1863   -0.6967   -1.4609 C   0  0  1  0  0  0  0  0  0  0  0  0
   -0.8980   -2.0720   -1.3654 O   0  0  0  0  0  0  0  0  0  0  0  0
   -2.2918   -0.2724   -0.4543 C   0  0  2  0  0  0  0  0  0  0  0  0
   -3.1776    0.6340   -1.0617 O   0  0  0  0  0  0  0  0  0  0  0  0
   -1.4896    1.4815    0.5833 H   0  0  0  0  0  0  0  0  0  0  0  0
   -2.1752    0.9604    2.8189 H   0  0  0  0  0  0  0  0  0  0  0  0
   -3.5970    0.8033    1.7406 H   0  0  0  0  0  0  0  0  0  0  0  0
   -3.6269   -1.3046    2.1266 H   0  0  0  0  0  0  0  0  0  0  0  0
    2.9361    0.4444   -1.5489 H   0  0  0  0  0  0  0  0  0  0  0  0
    3.9028    0.6607   -0.0292 H   0  0  0  0  0  0  0  0  0  0  0  0
    4.4364   -0.4928   -1.2970 H   0  0  0  0  0  0  0  0  0  0  0  0
    3.0056   -3.1464    0.5945 H   0  0  0  0  0  0  0  0  0  0  0  0
    2.1754    3.1728    0.1769 H   0  0  0  0  0  0  0  0  0  0  0  0
    1.2851    0.7661    2.6999 H   0  0  0  0  0  0  0  0  0  0  0  0
    0.8665   -0.2681   -1.9665 H   0  0  0  0  0  0  0  0  0  0  0  0
   -0.1842    1.5007   -2.6483 H   0  0  0  0  0  0  0  0  0  0  0  0
   -1.5606   -0.5292   -2.4951 H   0  0  0  0  0  0  0  0  0  0  0  0
   -0.7261   -2.2906   -0.4134 H   0  0  0  0  0  0  0  0  0  0  0  0
   -2.8565   -1.1831   -0.1455 H   0  0  0  0  0  0  0  0  0  0  0  0
   -3.7731    0.1029   -1.6528 H   0  0  0  0  0  0  0  0  0  0  0  0
  1  2  1  0
  2  3  1  0
  1  4  1  0
  4  5  1  0
  5  6  1  6
  6  7  2  3
  7  8  1  0
  7  9  1  0
  5 10  1  0
 10 11  1  0
 10 12  2  3
  5 13  1  0
 13 14  1  0
 13 15  1  0
 15 16  1  0
 15 17  1  0
 17 18  1  0
 17  1  1  0
  1 19  1  6
  2 20  1  0
  2 21  1  0
  3 22  1  0
  8 23  1  0
  8 24  1  0
  8 25  1  0
  9 26  1  0
 11 27  1  0
 12 28  1  0
 13 29  1  6
 14 30  1  0
 15 31  1  6
 16 32  1  0
 17 33  1  1
 18 34  1  0
M  END
$$$$
