
     RDKit          3D

 39 38  0  0  0  0  0  0  0  0999 V2000
   -5.4058    1.1098    0.9801 O   0  0  0  0  0  0  0  0  0  0  0  0
   -5.6660    0.3977   -0.1981 C   0  0  0  0  0  0  0  0  0  0  0  0
   -4.3677   -0.1853   -0.7583 C   0  0  0  0  0  0  0  0  0  0  0  0
   -3.7521   -1.2215    0.1958 C   0  0  0  0  0  0  0  0  0  0  0  0
   -2.5624   -1.9764   -0.4248 C   0  0  0  0  0  0  0  0  0  0  0  0
   -1.3661   -1.0931   -0.8242 C   0  0  0  0  0  0  0  0  0  0  0  0
   -0.7332   -0.3647    0.3743 C   0  0  0  0  0  0  0  0  0  0  0  0
    0.5409    0.4056   -0.0109 C   0  0  0  0  0  0  0  0  0  0  0  0
    1.7711   -0.5119   -0.1261 C   0  0  0  0  0  0  0  0  0  0  0  0
    3.0314    0.2429   -0.5790 C   0  0  0  0  0  0  0  0  0  0  0  0
    3.6101    1.1472    0.5232 C   0  0  0  0  0  0  0  0  0  0  0  0
    4.9129    1.8299    0.0861 C   0  0  0  0  0  0  0  0  0  0  0  0
    6.0418    0.8518   -0.0279 C   0  0  0  0  0  0  0  0  0  0  0  0
    6.6405    0.3479    1.1224 O   0  0  0  0  0  0  0  0  0  0  0  0
    6.4340    0.4677   -1.1622 O   0  0  0  0  0  0  0  0  0  0  0  0
   -6.2825    1.4544    1.2922 H   0  0  0  0  0  0  0  0  0  0  0  0
   -6.3932   -0.4211    0.0023 H   0  0  0  0  0  0  0  0  0  0  0  0
   -6.1071    1.0830   -0.9559 H   0  0  0  0  0  0  0  0  0  0  0  0
   -3.6527    0.6473   -0.9303 H   0  0  0  0  0  0  0  0  0  0  0  0
   -4.5882   -0.6662   -1.7361 H   0  0  0  0  0  0  0  0  0  0  0  0
   -4.5275   -1.9753    0.4556 H   0  0  0  0  0  0  0  0  0  0  0  0
   -3.4448   -0.7343    1.1449 H   0  0  0  0  0  0  0  0  0  0  0  0
   -2.9159   -2.5210   -1.3274 H   0  0  0  0  0  0  0  0  0  0  0  0
   -2.2146   -2.7447    0.2998 H   0  0  0  0  0  0  0  0  0  0  0  0
   -1.6727   -0.3573   -1.5973 H   0  0  0  0  0  0  0  0  0  0  0  0
   -0.6121   -1.7576   -1.2943 H   0  0  0  0  0  0  0  0  0  0  0  0
   -0.5087   -1.0870    1.1896 H   0  0  0  0  0  0  0  0  0  0  0  0
   -1.4630    0.3743    0.7681 H   0  0  0  0  0  0  0  0  0  0  0  0
    0.7279    1.1607    0.7814 H   0  0  0  0  0  0  0  0  0  0  0  0
    0.3781    0.9525   -0.9656 H   0  0  0  0  0  0  0  0  0  0  0  0
    1.9629   -1.0130    0.8480 H   0  0  0  0  0  0  0  0  0  0  0  0
    1.5703   -1.3056   -0.8753 H   0  0  0  0  0  0  0  0  0  0  0  0
    2.8044    0.8466   -1.4851 H   0  0  0  0  0  0  0  0  0  0  0  0
    3.7939   -0.5142   -0.8631 H   0  0  0  0  0  0  0  0  0  0  0  0
    3.7902    0.5554    1.4478 H   0  0  0  0  0  0  0  0  0  0  0  0
    2.8781    1.9452    0.7675 H   0  0  0  0  0  0  0  0  0  0  0  0
    4.7613    2.3574   -0.8812 H   0  0  0  0  0  0  0  0  0  0  0  0
    5.1888    2.5950    0.8432 H   0  0  0  0  0  0  0  0  0  0  0  0
    7.3978   -0.3222    1.0629 H   0  0  0  0  0  0  0  0  0  0  0  0
  1  2  1  0
  2  3  1  0
  3  4  1  0
  4  5  1  0
  5  6  1  0
  6  7  1  0
  7  8  1  0
  8  9  1  0
  9 10  1  0
 10 11  1  0
 11 12  1  0
 12 13  1  0
 13 14  1  0
 13 15  2  0
  1 16  1  0
  2 17  1  0
  2 18  1  0
  3 19  1  0
  3 20  1  0
  4 21  1  0
  4 22  1  0
  5 23  1  0
  5 24  1  0
  6 25  1  0
  6 26  1  0
  7 27  1  0
  7 28  1  0
  8 29  1  0
  8 30  1  0
  9 31  1  0
  9 32  1  0
 10 33  1  0
 10 34  1  0
 11 35  1  0
 11 36  1  0
 12 37  1  0
 12 38  1  0
 14 39  1  0
M  END
$$$$
