
     RDKit          3D

 23 23  0  0  0  0  0  0  0  0999 V2000
   -1.4183   -0.6104    1.5826 N   0  0  0  0  0  0  0  0  0  0  0  0
   -1.5822    0.2732    0.4257 C   0  0  1  0  0  0  0  0  0  0  0  0
   -0.6693   -0.1739   -0.7295 C   0  0  0  0  0  0  0  0  0  0  0  0
    0.7486   -0.0997   -0.3365 N   0  0  0  0  0  0  0  0  0  0  0  0
    1.3686   -1.2202    0.1409 C   0  0  0  0  0  0  0  0  0  0  0  0
    2.7025   -1.1772    0.5418 C   0  0  0  0  0  0  0  0  0  0  0  0
    3.5536   -2.7584    1.2055 Br  0  0  0  0  0  0  0  0  0  0  0  0
    3.3863    0.0350    0.4499 C   0  0  0  0  0  0  0  0  0  0  0  0
    4.5938    0.1123    0.8027 O   0  0  0  0  0  0  0  0  0  0  0  0
    2.7458    1.1374   -0.0206 N   0  0  0  0  0  0  0  0  0  0  0  0
    1.4415    1.0824   -0.4081 C   0  0  0  0  0  0  0  0  0  0  0  0
    0.8799    2.1302   -0.8319 O   0  0  0  0  0  0  0  0  0  0  0  0
   -3.0200    0.3107   -0.0203 C   0  0  0  0  0  0  0  0  0  0  0  0
   -3.7070    1.5207   -0.0362 O   0  0  0  0  0  0  0  0  0  0  0  0
   -3.6032   -0.7463   -0.3841 O   0  0  0  0  0  0  0  0  0  0  0  0
   -1.7514   -1.5723    1.3397 H   0  0  0  0  0  0  0  0  0  0  0  0
   -2.0199   -0.2571    2.3623 H   0  0  0  0  0  0  0  0  0  0  0  0
   -1.2845    1.3021    0.7263 H   0  0  0  0  0  0  0  0  0  0  0  0
   -0.9330   -1.2100   -1.0410 H   0  0  0  0  0  0  0  0  0  0  0  0
   -0.8494    0.4687   -1.6202 H   0  0  0  0  0  0  0  0  0  0  0  0
    0.8284   -2.1567    0.2167 H   0  0  0  0  0  0  0  0  0  0  0  0
    3.2632    2.0442   -0.0834 H   0  0  0  0  0  0  0  0  0  0  0  0
   -4.6738    1.5653   -0.3352 H   0  0  0  0  0  0  0  0  0  0  0  0
  1  2  1  0
  2  3  1  0
  3  4  1  0
  4  5  1  0
  5  6  2  0
  6  7  1  0
  6  8  1  0
  8  9  2  0
  8 10  1  0
 10 11  1  0
 11 12  2  0
  2 13  1  0
 13 14  1  0
 13 15  2  0
 11  4  1  0
  1 16  1  0
  1 17  1  0
  2 18  1  1
  3 19  1  0
  3 20  1  0
  5 21  1  0
 10 22  1  0
 14 23  1  0
M  END
$$$$
