
     RDKit          3D

 24 25  0  0  0  0  0  0  0  0999 V2000
    3.2289   -1.6270   -2.0237 O   0  0  0  0  0  0  0  0  0  0  0  0
    3.1411   -1.1297   -0.7275 C   0  0  0  0  0  0  0  0  0  0  0  0
    4.1757   -0.7170   -0.1387 O   0  0  0  0  0  0  0  0  0  0  0  0
    1.8129   -1.0364   -0.0566 C   0  0  0  0  0  0  0  0  0  0  0  0
    1.2464    0.2427   -0.3152 O   0  0  0  0  0  0  0  0  0  0  0  0
   -0.0166    0.5969    0.1624 C   0  0  0  0  0  0  0  0  0  0  0  0
   -0.2131    1.5412    1.1781 C   0  0  0  0  0  0  0  0  0  0  0  0
   -1.8729    1.6896    1.4899 S   0  0  0  0  0  0  0  0  0  0  0  0
   -2.3313    0.5704    0.3282 C   0  0  0  0  0  0  0  0  0  0  0  0
   -3.5955    0.1993    0.0082 N   0  0  0  0  0  0  0  0  0  0  0  0
   -3.7959   -0.7064   -0.9920 C   0  0  0  0  0  0  0  0  0  0  0  0
   -2.7017   -1.2428   -1.6981 C   0  0  0  0  0  0  0  0  0  0  0  0
   -1.3958   -0.8501   -1.3651 C   0  0  0  0  0  0  0  0  0  0  0  0
   -1.2205    0.0629   -0.3220 C   0  0  0  0  0  0  0  0  0  0  0  0
    0.8339    2.2858    1.8926 C   0  0  0  0  0  0  0  0  0  0  0  0
    0.4811    3.1891    2.8904 O   0  0  0  0  0  0  0  0  0  0  0  0
    2.0492    2.1123    1.6086 O   0  0  0  0  0  0  0  0  0  0  0  0
    4.1212   -1.6805   -2.5002 H   0  0  0  0  0  0  0  0  0  0  0  0
    1.1515   -1.8419   -0.4369 H   0  0  0  0  0  0  0  0  0  0  0  0
    1.9368   -1.1734    1.0397 H   0  0  0  0  0  0  0  0  0  0  0  0
   -4.8029   -1.0060   -1.2495 H   0  0  0  0  0  0  0  0  0  0  0  0
   -2.8676   -1.9503   -2.5000 H   0  0  0  0  0  0  0  0  0  0  0  0
   -0.5540   -1.2393   -1.9216 H   0  0  0  0  0  0  0  0  0  0  0  0
    1.1891    3.7108    3.3933 H   0  0  0  0  0  0  0  0  0  0  0  0
  1  2  1  0
  2  3  2  0
  2  4  1  0
  4  5  1  0
  5  6  1  0
  6  7  2  0
  7  8  1  0
  8  9  1  0
  9 10  2  0
 10 11  1  0
 11 12  2  0
 12 13  1  0
 13 14  2  0
  7 15  1  0
 15 16  1  0
 15 17  2  0
 14  6  1  0
 14  9  1  0
  1 18  1  0
  4 19  1  0
  4 20  1  0
 11 21  1  0
 12 22  1  0
 13 23  1  0
 16 24  1  0
M  END
$$$$
