
     RDKit          3D

 25 24  0  0  0  0  0  0  0  0999 V2000
   -2.3646   -0.3930   -0.6755 C   0  0  0  0  0  0  0  0  0  0  0  0
   -1.6211    0.4998    0.3299 C   0  0  0  0  0  0  0  0  0  0  0  0
   -2.4719    0.6762    1.5946 C   0  0  0  0  0  0  0  0  0  0  0  0
   -0.2328   -0.0766    0.7059 C   0  0  0  0  0  0  0  0  0  0  0  0
    0.7799   -0.1084   -0.4622 C   0  0  1  0  0  0  0  0  0  0  0  0
    1.0561    1.2684   -1.0003 C   0  0  0  0  0  0  0  0  0  0  0  0
    1.4721    2.2853   -0.1449 O   0  0  0  0  0  0  0  0  0  0  0  0
    0.9237    1.5011   -2.2318 O   0  0  0  0  0  0  0  0  0  0  0  0
    2.0764   -0.7390   -0.0213 C   0  0  0  0  0  0  0  0  0  0  0  0
    2.6879   -0.2858    0.9848 O   0  0  0  0  0  0  0  0  0  0  0  0
    2.6337   -1.8363   -0.7514 N   0  0  0  0  0  0  0  0  0  0  0  0
    3.7963   -2.4067   -0.3542 O   0  0  0  0  0  0  0  0  0  0  0  0
   -2.4266   -1.4381   -0.3032 H   0  0  0  0  0  0  0  0  0  0  0  0
   -3.3953   -0.0123   -0.8401 H   0  0  0  0  0  0  0  0  0  0  0  0
   -1.8540   -0.3854   -1.6601 H   0  0  0  0  0  0  0  0  0  0  0  0
   -1.4923    1.5063   -0.1246 H   0  0  0  0  0  0  0  0  0  0  0  0
   -1.9629    1.3582    2.3088 H   0  0  0  0  0  0  0  0  0  0  0  0
   -3.4557    1.1244    1.3385 H   0  0  0  0  0  0  0  0  0  0  0  0
   -2.6420   -0.3030    2.0922 H   0  0  0  0  0  0  0  0  0  0  0  0
   -0.3643   -1.1101    1.0980 H   0  0  0  0  0  0  0  0  0  0  0  0
    0.1962    0.5319    1.5335 H   0  0  0  0  0  0  0  0  0  0  0  0
    0.3565   -0.7332   -1.2767 H   0  0  0  0  0  0  0  0  0  0  0  0
    1.6639    3.2151   -0.4978 H   0  0  0  0  0  0  0  0  0  0  0  0
    2.1393   -2.2216   -1.5869 H   0  0  0  0  0  0  0  0  0  0  0  0
    4.5016   -1.9171   -0.8496 H   0  0  0  0  0  0  0  0  0  0  0  0
  1  2  1  0
  2  3  1  0
  2  4  1  0
  4  5  1  0
  5  6  1  0
  6  7  1  0
  6  8  2  0
  5  9  1  0
  9 10  2  0
  9 11  1  0
 11 12  1  0
  1 13  1  0
  1 14  1  0
  1 15  1  0
  2 16  1  0
  3 17  1  0
  3 18  1  0
  3 19  1  0
  4 20  1  0
  4 21  1  0
  5 22  1  6
  7 23  1  0
 11 24  1  0
 12 25  1  0
M  END
$$$$
