
     RDKit          3D

 62 62  0  0  0  0  0  0  0  0999 V2000
   -1.3590   -2.4139   -0.9598 C   0  0  2  0  0  0  0  0  0  0  0  0
   -2.4329   -1.6148   -0.1800 C   0  0  0  0  0  0  0  0  0  0  0  0
   -2.1479   -1.4857    1.3293 C   0  0  0  0  0  0  0  0  0  0  0  0
   -3.2036   -0.6435    2.0685 C   0  0  0  0  0  0  0  0  0  0  0  0
   -3.2273    0.8492    1.6894 C   0  0  0  0  0  0  0  0  0  0  0  0
   -1.9071    1.5644    1.9757 C   0  0  0  0  0  0  0  0  0  0  0  0
   -1.2639   -3.9016   -0.5472 C   0  0  0  0  0  0  0  0  0  0  0  0
   -2.5438   -4.6405   -0.8153 C   0  0  0  0  0  0  0  0  0  0  0  0
   -2.8364   -4.9696   -1.9963 O   0  0  0  0  0  0  0  0  0  0  0  0
   -3.4440   -4.9474    0.2529 N   0  0  0  0  0  0  0  0  0  0  0  0
   -4.6169   -5.5775    0.0049 O   0  0  0  0  0  0  0  0  0  0  0  0
   -0.0191   -1.7180   -0.8779 C   0  0  0  0  0  0  0  0  0  0  0  0
    0.8764   -2.1510   -0.1017 O   0  0  0  0  0  0  0  0  0  0  0  0
    0.2065   -0.5300   -1.6513 N   0  0  0  0  0  0  0  0  0  0  0  0
    1.3275    0.3904   -1.4191 C   0  0  1  0  0  0  0  0  0  0  0  0
    2.0944    0.6285   -2.7486 C   0  0  0  0  0  0  0  0  0  0  0  0
    3.2974    1.5676   -2.5587 C   0  0  0  0  0  0  0  0  0  0  0  0
    2.5795   -0.7004   -3.3510 C   0  0  0  0  0  0  0  0  0  0  0  0
    0.7767    1.6927   -0.8703 C   0  0  0  0  0  0  0  0  0  0  0  0
   -0.2670    2.1695   -1.3961 O   0  0  0  0  0  0  0  0  0  0  0  0
    1.4451    2.4539    0.1588 N   0  0  0  0  0  0  0  0  0  0  0  0
    1.1925    3.8787    0.3196 C   0  0  0  0  0  0  0  0  0  0  0  0
    2.1646    4.3608    1.3874 C   0  0  0  0  0  0  0  0  0  0  0  0
    3.2208    3.2679    1.4954 C   0  0  0  0  0  0  0  0  0  0  0  0
    2.5299    1.9878    1.0201 C   0  0  1  0  0  0  0  0  0  0  0  0
    1.9724    1.1978    2.2161 C   0  0  0  0  0  0  0  0  0  0  0  0
    1.3717    0.0127    1.7815 O   0  0  0  0  0  0  0  0  0  0  0  0
   -1.6595   -2.3984   -2.0316 H   0  0  0  0  0  0  0  0  0  0  0  0
   -2.4908   -0.6030   -0.6327 H   0  0  0  0  0  0  0  0  0  0  0  0
   -3.4281   -2.0872   -0.3258 H   0  0  0  0  0  0  0  0  0  0  0  0
   -1.1400   -1.0617    1.5029 H   0  0  0  0  0  0  0  0  0  0  0  0
   -2.1558   -2.4957    1.7875 H   0  0  0  0  0  0  0  0  0  0  0  0
   -4.2101   -1.0760    1.8784 H   0  0  0  0  0  0  0  0  0  0  0  0
   -3.0175   -0.7278    3.1615 H   0  0  0  0  0  0  0  0  0  0  0  0
   -4.0238    1.3417    2.2881 H   0  0  0  0  0  0  0  0  0  0  0  0
   -3.5004    0.9817    0.6223 H   0  0  0  0  0  0  0  0  0  0  0  0
   -1.1248    1.2340    1.2638 H   0  0  0  0  0  0  0  0  0  0  0  0
   -1.5717    1.3661    3.0158 H   0  0  0  0  0  0  0  0  0  0  0  0
   -2.0429    2.6590    1.8488 H   0  0  0  0  0  0  0  0  0  0  0  0
   -0.4572   -4.3896   -1.1372 H   0  0  0  0  0  0  0  0  0  0  0  0
   -0.9810   -4.0018    0.5216 H   0  0  0  0  0  0  0  0  0  0  0  0
   -3.2150   -4.6672    1.2325 H   0  0  0  0  0  0  0  0  0  0  0  0
   -4.4131   -6.5423    0.1056 H   0  0  0  0  0  0  0  0  0  0  0  0
   -0.5100   -0.2649   -2.3655 H   0  0  0  0  0  0  0  0  0  0  0  0
    2.0320   -0.0636   -0.6963 H   0  0  0  0  0  0  0  0  0  0  0  0
    1.4040    1.1019   -3.4824 H   0  0  0  0  0  0  0  0  0  0  0  0
    4.0220    1.1358   -1.8363 H   0  0  0  0  0  0  0  0  0  0  0  0
    2.9692    2.5631   -2.1942 H   0  0  0  0  0  0  0  0  0  0  0  0
    3.8167    1.7247   -3.5282 H   0  0  0  0  0  0  0  0  0  0  0  0
    1.7186   -1.3554   -3.6013 H   0  0  0  0  0  0  0  0  0  0  0  0
    3.1423   -0.5156   -4.2909 H   0  0  0  0  0  0  0  0  0  0  0  0
    3.2418   -1.2348   -2.6363 H   0  0  0  0  0  0  0  0  0  0  0  0
    0.1411    4.0514    0.6366 H   0  0  0  0  0  0  0  0  0  0  0  0
    1.3889    4.4035   -0.6409 H   0  0  0  0  0  0  0  0  0  0  0  0
    2.6191    5.3379    1.1146 H   0  0  0  0  0  0  0  0  0  0  0  0
    1.6336    4.4610    2.3596 H   0  0  0  0  0  0  0  0  0  0  0  0
    3.6253    3.1936    2.5288 H   0  0  0  0  0  0  0  0  0  0  0  0
    4.0600    3.5078    0.8051 H   0  0  0  0  0  0  0  0  0  0  0  0
    3.2650    1.3746    0.4594 H   0  0  0  0  0  0  0  0  0  0  0  0
    2.8055    0.9490    2.9114 H   0  0  0  0  0  0  0  0  0  0  0  0
    1.2249    1.8167    2.7625 H   0  0  0  0  0  0  0  0  0  0  0  0
    1.0451   -0.4462    2.5985 H   0  0  0  0  0  0  0  0  0  0  0  0
  1  2  1  0
  2  3  1  0
  3  4  1  0
  4  5  1  0
  5  6  1  0
  1  7  1  0
  7  8  1  0
  8  9  2  0
  8 10  1  0
 10 11  1  0
  1 12  1  0
 12 13  2  0
 12 14  1  0
 14 15  1  0
 15 16  1  0
 16 17  1  0
 16 18  1  0
 15 19  1  0
 19 20  2  0
 19 21  1  0
 21 22  1  0
 22 23  1  0
 23 24  1  0
 24 25  1  0
 25 26  1  0
 26 27  1  0
 25 21  1  0
  1 28  1  6
  2 29  1  0
  2 30  1  0
  3 31  1  0
  3 32  1  0
  4 33  1  0
  4 34  1  0
  5 35  1  0
  5 36  1  0
  6 37  1  0
  6 38  1  0
  6 39  1  0
  7 40  1  0
  7 41  1  0
 10 42  1  0
 11 43  1  0
 14 44  1  0
 15 45  1  1
 16 46  1  0
 17 47  1  0
 17 48  1  0
 17 49  1  0
 18 50  1  0
 18 51  1  0
 18 52  1  0
 22 53  1  0
 22 54  1  0
 23 55  1  0
 23 56  1  0
 24 57  1  0
 24 58  1  0
 25 59  1  6
 26 60  1  0
 26 61  1  0
 27 62  1  0
M  END
$$$$
