
     RDKit          3D

 77 81  0  0  0  0  0  0  0  0999 V2000
   -2.0819    1.5249   -0.3823 C   0  0  2  0  0  0  0  0  0  0  0  0
   -1.4926    2.6565   -1.2092 C   0  0  0  0  0  0  0  0  0  0  0  0
    0.0322    2.4637   -1.0398 C   0  0  0  0  0  0  0  0  0  0  0  0
    0.2436    1.1158   -0.2730 C   0  0  2  0  0  0  0  0  0  0  0  0
    0.3624    1.4506    1.0968 O   0  0  0  0  0  0  0  0  0  0  0  0
    1.5106    0.3870   -0.7411 C   0  0  0  0  0  0  0  0  0  0  0  0
    1.8116    0.3864   -1.9271 O   0  0  0  0  0  0  0  0  0  0  0  0
    2.4127   -0.3236    0.2358 C   0  0  0  0  0  0  0  0  0  0  0  0
    3.4916   -0.9569   -0.4469 O   0  0  0  0  0  0  0  0  0  0  0  0
    4.4846   -1.6792    0.2202 C   0  0  0  0  0  0  0  0  0  0  0  0
    4.4557   -1.8059    1.4750 O   0  0  0  0  0  0  0  0  0  0  0  0
    5.6087   -2.2819   -0.5641 C   0  0  0  0  0  0  0  0  0  0  0  0
    6.5550   -1.2069   -1.1197 C   0  0  0  0  0  0  0  0  0  0  0  0
    7.2931   -0.4158   -0.0177 C   0  0  0  0  0  0  0  0  0  0  0  0
    8.1703    0.6860   -0.5979 C   0  0  0  0  0  0  0  0  0  0  0  0
    9.2366    0.9480    0.4556 C   0  0  0  0  0  0  0  0  0  0  0  0
    9.3397   -0.3223    1.2986 C   0  0  0  0  0  0  0  0  0  0  0  0
    8.2503   -1.2710    0.8084 C   0  0  0  0  0  0  0  0  0  0  0  0
   -1.0992    0.3534   -0.5589 C   0  0  2  0  0  0  0  0  0  0  0  0
   -1.0812   -0.2130   -2.0261 C   0  0  0  0  0  0  0  0  0  0  0  0
   -1.5051   -0.8363    0.3805 C   0  0  0  0  0  0  0  0  0  0  0  0
   -2.6916   -0.5684    1.3523 C   0  0  2  0  0  0  0  0  0  0  0  0
   -3.0904   -1.7918    1.9072 O   0  0  0  0  0  0  0  0  0  0  0  0
   -3.9199    0.2585    0.7523 C   0  0  1  0  0  0  0  0  0  0  0  0
   -3.5339    1.0538   -0.5388 C   0  0  1  0  0  0  0  0  0  0  0  0
   -4.5318    2.1892   -0.7631 C   0  0  0  0  0  0  0  0  0  0  0  0
   -5.9089    1.5917   -1.0484 C   0  0  0  0  0  0  0  0  0  0  0  0
   -6.3438    0.6039    0.0189 C   0  0  0  0  0  0  0  0  0  0  0  0
   -7.6602    0.5442    0.2975 C   0  0  0  0  0  0  0  0  0  0  0  0
   -8.2136   -0.3905    1.2833 C   0  0  0  0  0  0  0  0  0  0  0  0
   -9.4566   -0.4166    1.4854 O   0  0  0  0  0  0  0  0  0  0  0  0
   -7.3272   -1.3402    2.0175 C   0  0  0  0  0  0  0  0  0  0  0  0
   -5.8773   -0.8427    2.0326 C   0  0  0  0  0  0  0  0  0  0  0  0
   -5.3457   -0.4205    0.6176 C   0  0  2  0  0  0  0  0  0  0  0  0
   -5.2841   -1.6524   -0.3184 C   0  0  0  0  0  0  0  0  0  0  0  0
   -2.0138    1.9149    0.6635 H   0  0  0  0  0  0  0  0  0  0  0  0
   -1.7933    2.5703   -2.2756 H   0  0  0  0  0  0  0  0  0  0  0  0
   -1.8167    3.6475   -0.8222 H   0  0  0  0  0  0  0  0  0  0  0  0
    0.4688    3.3150   -0.4719 H   0  0  0  0  0  0  0  0  0  0  0  0
    0.5040    2.4617   -2.0458 H   0  0  0  0  0  0  0  0  0  0  0  0
    0.3610    0.6234    1.6391 H   0  0  0  0  0  0  0  0  0  0  0  0
    1.8272   -1.0926    0.7826 H   0  0  0  0  0  0  0  0  0  0  0  0
    2.8204    0.4146    0.9595 H   0  0  0  0  0  0  0  0  0  0  0  0
    6.1726   -3.0057    0.0631 H   0  0  0  0  0  0  0  0  0  0  0  0
    5.1757   -2.8504   -1.4146 H   0  0  0  0  0  0  0  0  0  0  0  0
    5.9697   -0.4992   -1.7476 H   0  0  0  0  0  0  0  0  0  0  0  0
    7.2964   -1.7002   -1.7861 H   0  0  0  0  0  0  0  0  0  0  0  0
    6.5522    0.0586    0.6652 H   0  0  0  0  0  0  0  0  0  0  0  0
    7.5788    1.6027   -0.8122 H   0  0  0  0  0  0  0  0  0  0  0  0
    8.6623    0.3419   -1.5355 H   0  0  0  0  0  0  0  0  0  0  0  0
   10.2106    1.1937   -0.0211 H   0  0  0  0  0  0  0  0  0  0  0  0
    8.9256    1.8015    1.0978 H   0  0  0  0  0  0  0  0  0  0  0  0
    9.1804   -0.0797    2.3723 H   0  0  0  0  0  0  0  0  0  0  0  0
   10.3419   -0.7903    1.1837 H   0  0  0  0  0  0  0  0  0  0  0  0
    7.7230   -1.7499    1.6620 H   0  0  0  0  0  0  0  0  0  0  0  0
    8.7123   -2.0627    0.1771 H   0  0  0  0  0  0  0  0  0  0  0  0
   -2.0390   -0.6815   -2.3234 H   0  0  0  0  0  0  0  0  0  0  0  0
   -0.8282    0.5501   -2.7884 H   0  0  0  0  0  0  0  0  0  0  0  0
   -0.3299   -1.0267   -2.1071 H   0  0  0  0  0  0  0  0  0  0  0  0
   -0.6284   -1.2004    0.9528 H   0  0  0  0  0  0  0  0  0  0  0  0
   -1.8102   -1.7190   -0.2254 H   0  0  0  0  0  0  0  0  0  0  0  0
   -2.2651    0.0566    2.1746 H   0  0  0  0  0  0  0  0  0  0  0  0
   -2.3861   -2.0700    2.5501 H   0  0  0  0  0  0  0  0  0  0  0  0
   -4.0851    1.0468    1.5251 H   0  0  0  0  0  0  0  0  0  0  0  0
   -3.6094    0.4044   -1.4254 H   0  0  0  0  0  0  0  0  0  0  0  0
   -4.5780    2.8594    0.1236 H   0  0  0  0  0  0  0  0  0  0  0  0
   -4.2278    2.7993   -1.6406 H   0  0  0  0  0  0  0  0  0  0  0  0
   -5.8934    1.0689   -2.0295 H   0  0  0  0  0  0  0  0  0  0  0  0
   -6.6298    2.4349   -1.1335 H   0  0  0  0  0  0  0  0  0  0  0  0
   -8.3526    1.2172   -0.1957 H   0  0  0  0  0  0  0  0  0  0  0  0
   -7.6848   -1.4438    3.0651 H   0  0  0  0  0  0  0  0  0  0  0  0
   -7.3881   -2.3411    1.5408 H   0  0  0  0  0  0  0  0  0  0  0  0
   -5.8184    0.0274    2.7240 H   0  0  0  0  0  0  0  0  0  0  0  0
   -5.2865   -1.6559    2.4870 H   0  0  0  0  0  0  0  0  0  0  0  0
   -6.2990   -2.0628   -0.5009 H   0  0  0  0  0  0  0  0  0  0  0  0
   -4.6652   -2.4625    0.1159 H   0  0  0  0  0  0  0  0  0  0  0  0
   -4.8678   -1.3944   -1.3115 H   0  0  0  0  0  0  0  0  0  0  0  0
  1  2  1  0
  2  3  1  0
  3  4  1  0
  4  5  1  1
  4  6  1  0
  6  7  2  0
  6  8  1  0
  8  9  1  0
  9 10  1  0
 10 11  2  0
 10 12  1  0
 12 13  1  0
 13 14  1  0
 14 15  1  0
 15 16  1  0
 16 17  1  0
 17 18  1  0
  4 19  1  0
 19 20  1  6
 19 21  1  0
 21 22  1  0
 22 23  1  0
 22 24  1  0
 24 25  1  0
 25 26  1  0
 26 27  1  0
 27 28  1  0
 28 29  2  0
 29 30  1  0
 30 31  2  0
 30 32  1  0
 32 33  1  0
 33 34  1  0
 34 35  1  6
 19  1  1  0
 34 24  1  0
 25  1  1  0
 34 28  1  0
 18 14  1  0
  1 36  1  1
  2 37  1  0
  2 38  1  0
  3 39  1  0
  3 40  1  0
  5 41  1  0
  8 42  1  0
  8 43  1  0
 12 44  1  0
 12 45  1  0
 13 46  1  0
 13 47  1  0
 14 48  1  0
 15 49  1  0
 15 50  1  0
 16 51  1  0
 16 52  1  0
 17 53  1  0
 17 54  1  0
 18 55  1  0
 18 56  1  0
 20 57  1  0
 20 58  1  0
 20 59  1  0
 21 60  1  0
 21 61  1  0
 22 62  1  1
 23 63  1  0
 24 64  1  1
 25 65  1  6
 26 66  1  0
 26 67  1  0
 27 68  1  0
 27 69  1  0
 29 70  1  0
 32 71  1  0
 32 72  1  0
 33 73  1  0
 33 74  1  0
 35 75  1  0
 35 76  1  0
 35 77  1  0
M  END
$$$$
