
     RDKit          3D

 33 33  0  0  0  0  0  0  0  0999 V2000
   -4.1717   -1.0326    0.9935 C   0  0  0  0  0  0  0  0  0  0  0  0
   -4.0561   -0.1627   -0.1808 N   0  0  0  0  0  0  0  0  0  0  0  0
   -5.2053    0.2706   -0.8672 N   0  0  0  0  0  0  0  0  0  0  0  0
   -6.3511   -0.0788   -0.5150 O   0  0  0  0  0  0  0  0  0  0  0  0
   -2.7695    0.2127   -0.7033 C   0  0  0  0  0  0  0  0  0  0  0  0
   -2.6990    1.1339   -1.5622 O   0  0  0  0  0  0  0  0  0  0  0  0
   -1.5698   -0.4570   -0.2778 N   0  0  0  0  0  0  0  0  0  0  0  0
   -0.2331    0.0279   -0.6441 C   0  0  1  0  0  0  0  0  0  0  0  0
    0.1106    1.3230    0.1416 C   0  0  1  0  0  0  0  0  0  0  0  0
   -0.1667    1.2478    1.5222 O   0  0  0  0  0  0  0  0  0  0  0  0
    1.4389    1.7639   -0.0960 O   0  0  0  0  0  0  0  0  0  0  0  0
    2.4059    0.7946    0.2761 C   0  0  2  0  0  0  0  0  0  0  0  0
    3.7936    1.4245    0.0874 C   0  0  0  0  0  0  0  0  0  0  0  0
    4.7829    0.6168    0.6638 O   0  0  0  0  0  0  0  0  0  0  0  0
    2.2473   -0.4852   -0.5852 C   0  0  1  0  0  0  0  0  0  0  0  0
    3.2149   -1.4535   -0.2611 O   0  0  0  0  0  0  0  0  0  0  0  0
    0.8313   -1.0660   -0.4075 C   0  0  2  0  0  0  0  0  0  0  0  0
    0.6270   -2.1584   -1.2701 O   0  0  0  0  0  0  0  0  0  0  0  0
   -3.4053   -0.7621    1.7506 H   0  0  0  0  0  0  0  0  0  0  0  0
   -4.0394   -2.0917    0.6884 H   0  0  0  0  0  0  0  0  0  0  0  0
   -5.1630   -0.9167    1.4785 H   0  0  0  0  0  0  0  0  0  0  0  0
   -1.6521   -1.3473    0.2620 H   0  0  0  0  0  0  0  0  0  0  0  0
   -0.2252    0.2767   -1.7296 H   0  0  0  0  0  0  0  0  0  0  0  0
   -0.5525    2.1171   -0.2610 H   0  0  0  0  0  0  0  0  0  0  0  0
    0.0898    0.3513    1.8544 H   0  0  0  0  0  0  0  0  0  0  0  0
    2.3069    0.5447    1.3568 H   0  0  0  0  0  0  0  0  0  0  0  0
    3.8071    2.4218    0.5821 H   0  0  0  0  0  0  0  0  0  0  0  0
    4.0018    1.5700   -0.9968 H   0  0  0  0  0  0  0  0  0  0  0  0
    5.6467    1.0739    0.4916 H   0  0  0  0  0  0  0  0  0  0  0  0
    2.3857   -0.2059   -1.6535 H   0  0  0  0  0  0  0  0  0  0  0  0
    3.1077   -1.6763    0.7008 H   0  0  0  0  0  0  0  0  0  0  0  0
    0.7366   -1.4449    0.6333 H   0  0  0  0  0  0  0  0  0  0  0  0
    0.7249   -1.8321   -2.2028 H   0  0  0  0  0  0  0  0  0  0  0  0
  1  2  1  0
  2  3  1  0
  3  4  2  0
  2  5  1  0
  5  6  2  0
  5  7  1  0
  7  8  1  0
  8  9  1  0
  9 10  1  0
  9 11  1  0
 11 12  1  0
 12 13  1  0
 13 14  1  0
 12 15  1  0
 15 16  1  0
 15 17  1  0
 17 18  1  0
 17  8  1  0
  1 19  1  0
  1 20  1  0
  1 21  1  0
  7 22  1  0
  8 23  1  6
  9 24  1  6
 10 25  1  0
 12 26  1  1
 13 27  1  0
 13 28  1  0
 14 29  1  0
 15 30  1  6
 16 31  1  0
 17 32  1  1
 18 33  1  0
M  END
$$$$
