
     RDKit          3D

 15 14  0  0  0  0  0  0  0  0999 V2000
   -2.3946   -0.2031   -0.7950 N   0  0  0  0  0  0  0  0  0  0  0  0
   -1.1948   -0.1837   -0.0219 C   0  0  0  0  0  0  0  0  0  0  0  0
   -1.1280    0.6457    1.1457 N   0  0  0  0  0  0  0  0  0  0  0  0
   -0.1910   -0.9251   -0.3968 N   0  0  0  0  0  0  0  0  0  0  0  0
    1.1084   -1.0226    0.2656 C   0  0  0  0  0  0  0  0  0  0  0  0
    1.9087    0.2230    0.0453 C   0  0  0  0  0  0  0  0  0  0  0  0
    2.0894    0.7123   -1.2447 O   0  0  0  0  0  0  0  0  0  0  0  0
    2.4403    0.8139    1.0230 O   0  0  0  0  0  0  0  0  0  0  0  0
   -2.4663   -0.8003   -1.6489 H   0  0  0  0  0  0  0  0  0  0  0  0
   -3.2149    0.3797   -0.5170 H   0  0  0  0  0  0  0  0  0  0  0  0
   -0.2857    0.6869    1.7589 H   0  0  0  0  0  0  0  0  0  0  0  0
   -1.9489    1.2327    1.4129 H   0  0  0  0  0  0  0  0  0  0  0  0
    0.9760   -1.2338    1.3491 H   0  0  0  0  0  0  0  0  0  0  0  0
    1.6661   -1.8749   -0.1750 H   0  0  0  0  0  0  0  0  0  0  0  0
    2.6353    1.5493   -1.4110 H   0  0  0  0  0  0  0  0  0  0  0  0
  1  2  1  0
  2  3  1  0
  2  4  2  3
  4  5  1  0
  5  6  1  0
  6  7  1  0
  6  8  2  0
  1  9  1  0
  1 10  1  0
  3 11  1  0
  3 12  1  0
  5 13  1  0
  5 14  1  0
  7 15  1  0
M  END
$$$$
