
     RDKit          3D

 63 66  0  0  0  0  0  0  0  0999 V2000
    3.0410    1.9894   -0.1521 O   0  0  0  0  0  0  0  0  0  0  0  0
    3.3040    0.6027   -0.1007 C   0  0  0  0  0  0  0  0  0  0  0  0
    2.2825   -0.0061    0.8940 C   0  0  0  0  0  0  0  0  0  0  0  0
    0.8215    0.2367    0.4519 C   0  0  0  0  0  0  0  0  0  0  0  0
    0.7111    0.4922   -1.0010 N   0  0  0  0  0  0  0  0  0  0  0  0
   -0.6908    0.5119   -1.4735 C   0  0  0  0  0  0  0  0  0  0  0  0
   -1.3204   -0.8904   -1.6552 C   0  0  0  0  0  0  0  0  0  0  0  0
   -2.8559   -0.8311   -1.8110 C   0  0  0  0  0  0  0  0  0  0  0  0
   -3.6129   -1.0521   -0.4753 C   0  0  0  0  0  0  0  0  0  0  0  0
   -3.4062    0.0936    0.4968 C   0  0  0  0  0  0  0  0  0  0  0  0
   -3.9180    1.3779    0.2275 C   0  0  0  0  0  0  0  0  0  0  0  0
   -3.6878    2.4319    1.1165 C   0  0  0  0  0  0  0  0  0  0  0  0
   -2.9446    2.2184    2.2799 C   0  0  0  0  0  0  0  0  0  0  0  0
   -2.7183    3.2436    3.1378 F   0  0  0  0  0  0  0  0  0  0  0  0
   -2.4320    0.9491    2.5575 C   0  0  0  0  0  0  0  0  0  0  0  0
   -2.6615   -0.1088    1.6734 C   0  0  0  0  0  0  0  0  0  0  0  0
   -5.0986   -1.3294   -0.6590 C   0  0  0  0  0  0  0  0  0  0  0  0
   -5.7484   -2.1923    0.2441 C   0  0  0  0  0  0  0  0  0  0  0  0
   -7.1193   -2.4409    0.1311 C   0  0  0  0  0  0  0  0  0  0  0  0
   -7.8628   -1.8223   -0.8757 C   0  0  0  0  0  0  0  0  0  0  0  0
   -9.1928   -2.0629   -0.9823 F   0  0  0  0  0  0  0  0  0  0  0  0
   -7.2370   -0.9491   -1.7677 C   0  0  0  0  0  0  0  0  0  0  0  0
   -5.8661   -0.6965   -1.6595 C   0  0  0  0  0  0  0  0  0  0  0  0
    1.5927   -0.3846   -1.7887 C   0  0  0  0  0  0  0  0  0  0  0  0
    3.0701   -0.0545   -1.5008 C   0  0  0  0  0  0  0  0  0  0  0  0
    4.7701    0.3907    0.3287 C   0  0  0  0  0  0  0  0  0  0  0  0
    5.8057    0.8767   -0.4988 C   0  0  0  0  0  0  0  0  0  0  0  0
    7.1631    0.7148   -0.1576 C   0  0  0  0  0  0  0  0  0  0  0  0
    7.4885    0.0484    1.0420 C   0  0  0  0  0  0  0  0  0  0  0  0
    9.1574   -0.2011    1.5487 Cl  0  0  0  0  0  0  0  0  0  0  0  0
    6.4738   -0.4383    1.8669 C   0  0  0  0  0  0  0  0  0  0  0  0
    5.1332   -0.2732    1.5207 C   0  0  0  0  0  0  0  0  0  0  0  0
    8.2540    1.2449   -1.0648 C   0  0  0  0  0  0  0  0  0  0  0  0
    7.7364    1.8672   -2.1879 F   0  0  0  0  0  0  0  0  0  0  0  0
    9.0234    2.1655   -0.3766 F   0  0  0  0  0  0  0  0  0  0  0  0
    9.0591    0.2002   -1.4816 F   0  0  0  0  0  0  0  0  0  0  0  0
    3.5542    2.3911   -0.8992 H   0  0  0  0  0  0  0  0  0  0  0  0
    2.4494   -1.1043    0.9672 H   0  0  0  0  0  0  0  0  0  0  0  0
    2.4181    0.4358    1.9058 H   0  0  0  0  0  0  0  0  0  0  0  0
    0.2080   -0.6352    0.7616 H   0  0  0  0  0  0  0  0  0  0  0  0
    0.4308    1.1254    0.9947 H   0  0  0  0  0  0  0  0  0  0  0  0
   -0.7282    1.0433   -2.4492 H   0  0  0  0  0  0  0  0  0  0  0  0
   -1.2968    1.1258   -0.7768 H   0  0  0  0  0  0  0  0  0  0  0  0
   -0.8987   -1.3388   -2.5810 H   0  0  0  0  0  0  0  0  0  0  0  0
   -1.0462   -1.5699   -0.8232 H   0  0  0  0  0  0  0  0  0  0  0  0
   -3.1488    0.1298   -2.2862 H   0  0  0  0  0  0  0  0  0  0  0  0
   -3.1565   -1.6422   -2.5109 H   0  0  0  0  0  0  0  0  0  0  0  0
   -3.1797   -1.9789   -0.0345 H   0  0  0  0  0  0  0  0  0  0  0  0
   -4.4822    1.5696   -0.6749 H   0  0  0  0  0  0  0  0  0  0  0  0
   -4.0817    3.4163    0.8990 H   0  0  0  0  0  0  0  0  0  0  0  0
   -1.8523    0.7840    3.4566 H   0  0  0  0  0  0  0  0  0  0  0  0
   -2.2476   -1.0827    1.9031 H   0  0  0  0  0  0  0  0  0  0  0  0
   -5.1925   -2.6721    1.0403 H   0  0  0  0  0  0  0  0  0  0  0  0
   -7.6051   -3.1108    0.8289 H   0  0  0  0  0  0  0  0  0  0  0  0
   -7.8151   -0.4619   -2.5424 H   0  0  0  0  0  0  0  0  0  0  0  0
   -5.4167   -0.0045   -2.3572 H   0  0  0  0  0  0  0  0  0  0  0  0
    1.4018   -0.2510   -2.8768 H   0  0  0  0  0  0  0  0  0  0  0  0
    1.3993   -1.4516   -1.5348 H   0  0  0  0  0  0  0  0  0  0  0  0
    3.4517    0.6107   -2.3056 H   0  0  0  0  0  0  0  0  0  0  0  0
    3.6496   -1.0021   -1.5737 H   0  0  0  0  0  0  0  0  0  0  0  0
    5.5488    1.3796   -1.4205 H   0  0  0  0  0  0  0  0  0  0  0  0
    6.7246   -0.9516    2.7868 H   0  0  0  0  0  0  0  0  0  0  0  0
    4.3976   -0.6761    2.2002 H   0  0  0  0  0  0  0  0  0  0  0  0
  1  2  1  0
  2  3  1  0
  3  4  1  0
  4  5  1  0
  5  6  1  0
  6  7  1  0
  7  8  1  0
  8  9  1  0
  9 10  1  0
 10 11  2  0
 11 12  1  0
 12 13  2  0
 13 14  1  0
 13 15  1  0
 15 16  2  0
  9 17  1  0
 17 18  2  0
 18 19  1  0
 19 20  2  0
 20 21  1  0
 20 22  1  0
 22 23  2  0
  5 24  1  0
 24 25  1  0
  2 26  1  0
 26 27  2  0
 27 28  1  0
 28 29  2  0
 29 30  1  0
 29 31  1  0
 31 32  2  0
 28 33  1  0
 33 34  1  0
 33 35  1  0
 33 36  1  0
 25  2  1  0
 32 26  1  0
 16 10  1  0
 23 17  1  0
  1 37  1  0
  3 38  1  0
  3 39  1  0
  4 40  1  0
  4 41  1  0
  6 42  1  0
  6 43  1  0
  7 44  1  0
  7 45  1  0
  8 46  1  0
  8 47  1  0
  9 48  1  0
 11 49  1  0
 12 50  1  0
 15 51  1  0
 16 52  1  0
 18 53  1  0
 19 54  1  0
 22 55  1  0
 23 56  1  0
 24 57  1  0
 24 58  1  0
 25 59  1  0
 25 60  1  0
 27 61  1  0
 31 62  1  0
 32 63  1  0
M  END
$$$$
