
     RDKit          3D

 50 53  0  0  0  0  0  0  0  0999 V2000
    7.5927   -0.8691   -0.1761 N   0  0  0  0  0  0  0  0  0  0  0  0
    7.0818    0.2862   -0.8462 C   0  0  0  0  0  0  0  0  0  0  0  0
    7.9164    1.1842   -1.2697 N   0  0  0  0  0  0  0  0  0  0  0  0
    5.6195    0.4522   -1.0389 C   0  0  0  0  0  0  0  0  0  0  0  0
    4.7198    0.0091   -0.0403 C   0  0  0  0  0  0  0  0  0  0  0  0
    3.3572    0.1834   -0.2663 C   0  0  0  0  0  0  0  0  0  0  0  0
    2.8757    0.7554   -1.4028 C   0  0  0  0  0  0  0  0  0  0  0  0
    3.7200    1.2013   -2.4136 C   0  0  0  0  0  0  0  0  0  0  0  0
    5.1065    1.0463   -2.2260 C   0  0  0  0  0  0  0  0  0  0  0  0
    1.5322    0.8005   -1.3733 N   0  0  0  0  0  0  0  0  0  0  0  0
    1.2365    0.2434   -0.1674 C   0  0  0  0  0  0  0  0  0  0  0  0
    2.3337   -0.1531    0.5274 N   0  0  0  0  0  0  0  0  0  0  0  0
   -0.1478    0.0205    0.3043 C   0  0  0  0  0  0  0  0  0  0  0  0
   -0.4509   -1.1915    0.9444 C   0  0  0  0  0  0  0  0  0  0  0  0
   -1.7581   -1.4820    1.3524 C   0  0  0  0  0  0  0  0  0  0  0  0
   -2.0711   -2.8056    2.0027 C   0  0  0  0  0  0  0  0  0  0  0  0
   -2.1988   -3.9361    0.9698 C   0  0  0  0  0  0  0  0  0  0  0  0
   -3.3571   -3.7479    0.0944 N   0  0  0  0  0  4  0  0  0  0  0  0
   -2.7797   -0.5598    1.0980 C   0  0  0  0  0  0  0  0  0  0  0  0
   -2.5028    0.6623    0.4662 C   0  0  0  0  0  0  0  0  0  0  0  0
   -1.1763    0.9717    0.0960 C   0  0  0  0  0  0  0  0  0  0  0  0
   -0.9036    2.2406   -0.4256 O   0  0  0  0  0  0  0  0  0  0  0  0
   -3.6097    1.6177    0.2161 C   0  0  0  0  0  0  0  0  0  0  0  0
   -4.5044    1.9548    1.2477 C   0  0  0  0  0  0  0  0  0  0  0  0
   -5.5538    2.8476    1.0090 C   0  0  0  0  0  0  0  0  0  0  0  0
   -5.7230    3.4069   -0.2600 C   0  0  0  0  0  0  0  0  0  0  0  0
   -4.8444    3.0727   -1.2936 C   0  0  0  0  0  0  0  0  0  0  0  0
   -3.7932    2.1808   -1.0597 C   0  0  0  0  0  0  0  0  0  0  0  0
    6.9651   -1.6554    0.1023 H   0  0  0  0  0  0  0  0  0  0  0  0
    8.6179   -0.9672   -0.0023 H   0  0  0  0  0  0  0  0  0  0  0  0
    7.6125    2.0616   -1.7472 H   0  0  0  0  0  0  0  0  0  0  0  0
    5.0662   -0.4363    0.8836 H   0  0  0  0  0  0  0  0  0  0  0  0
    3.3249    1.6482   -3.3166 H   0  0  0  0  0  0  0  0  0  0  0  0
    5.7745    1.3698   -3.0138 H   0  0  0  0  0  0  0  0  0  0  0  0
    2.3765   -0.6085    1.4664 H   0  0  0  0  0  0  0  0  0  0  0  0
    0.3270   -1.9295    1.1023 H   0  0  0  0  0  0  0  0  0  0  0  0
   -3.0059   -2.7371    2.6013 H   0  0  0  0  0  0  0  0  0  0  0  0
   -1.2564   -3.0625    2.7144 H   0  0  0  0  0  0  0  0  0  0  0  0
   -2.3068   -4.9003    1.5141 H   0  0  0  0  0  0  0  0  0  0  0  0
   -1.2714   -3.9982    0.3579 H   0  0  0  0  0  0  0  0  0  0  0  0
   -4.2275   -3.6353    0.6633 H   0  0  0  0  0  0  0  0  0  0  0  0
   -3.2189   -2.9098   -0.5150 H   0  0  0  0  0  0  0  0  0  0  0  0
   -3.4612   -4.5894   -0.5174 H   0  0  0  0  0  0  0  0  0  0  0  0
   -3.7981   -0.8016    1.3797 H   0  0  0  0  0  0  0  0  0  0  0  0
    0.0319    2.5981   -0.5628 H   0  0  0  0  0  0  0  0  0  0  0  0
   -4.3831    1.5362    2.2393 H   0  0  0  0  0  0  0  0  0  0  0  0
   -6.2356    3.1065    1.8087 H   0  0  0  0  0  0  0  0  0  0  0  0
   -6.5363    4.0971   -0.4431 H   0  0  0  0  0  0  0  0  0  0  0  0
   -4.9803    3.5017   -2.2780 H   0  0  0  0  0  0  0  0  0  0  0  0
   -3.1323    1.9191   -1.8768 H   0  0  0  0  0  0  0  0  0  0  0  0
  1  2  1  0
  2  3  2  3
  2  4  1  0
  4  5  2  0
  5  6  1  0
  6  7  2  0
  7  8  1  0
  8  9  2  0
  7 10  1  0
 10 11  2  0
 11 12  1  0
 11 13  1  0
 13 14  2  0
 14 15  1  0
 15 16  1  0
 16 17  1  0
 17 18  1  0
 15 19  2  0
 19 20  1  0
 20 21  2  0
 21 22  1  0
 20 23  1  0
 23 24  2  0
 24 25  1  0
 25 26  2  0
 26 27  1  0
 27 28  2  0
  9  4  1  0
 21 13  1  0
 28 23  1  0
 12  6  1  0
  1 29  1  0
  1 30  1  0
  3 31  1  0
  5 32  1  0
  8 33  1  0
  9 34  1  0
 12 35  1  0
 14 36  1  0
 16 37  1  0
 16 38  1  0
 17 39  1  0
 17 40  1  0
 18 41  1  0
 18 42  1  0
 18 43  1  0
 19 44  1  0
 22 45  1  0
 24 46  1  0
 25 47  1  0
 26 48  1  0
 27 49  1  0
 28 50  1  0
M  CHG  1  18   1
M  END
$$$$
