
     RDKit          3D

 22 22  0  0  0  0  0  0  0  0999 V2000
    1.4299    0.5494    0.6600 C   0  0  1  0  0  0  0  0  0  0  0  0
    2.4814    1.4401    0.3758 O   0  0  0  0  0  0  0  0  0  0  0  0
    0.0884    1.0453    0.0856 C   0  0  2  0  0  0  0  0  0  0  0  0
   -0.2187    2.3188    0.5943 O   0  0  0  0  0  0  0  0  0  0  0  0
   -1.0390    0.0439    0.4750 C   0  0  1  0  0  0  0  0  0  0  0  0
   -2.2007    0.0788   -0.5321 C   0  0  0  0  0  0  0  0  0  0  0  0
   -3.2603   -0.7245   -0.0867 O   0  0  0  0  0  0  0  0  0  0  0  0
   -0.5888   -1.2947    0.6798 O   0  0  0  0  0  0  0  0  0  0  0  0
    0.4628   -1.6458   -0.1991 C   0  0  0  0  0  0  0  0  0  0  0  0
    0.6998   -3.0041   -0.0913 F   0  0  0  0  0  0  0  0  0  0  0  0
    1.7491   -0.8768    0.1542 C   0  0  1  0  0  0  0  0  0  0  0  0
    2.5668   -0.8369   -0.9641 F   0  0  0  0  0  0  0  0  0  0  0  0
    1.3235    0.5041    1.7672 H   0  0  0  0  0  0  0  0  0  0  0  0
    2.4863    1.6028   -0.6037 H   0  0  0  0  0  0  0  0  0  0  0  0
    0.1713    1.0917   -1.0275 H   0  0  0  0  0  0  0  0  0  0  0  0
    0.2986    2.9765    0.0600 H   0  0  0  0  0  0  0  0  0  0  0  0
   -1.4521    0.3806    1.4520 H   0  0  0  0  0  0  0  0  0  0  0  0
   -2.5712    1.1220   -0.6259 H   0  0  0  0  0  0  0  0  0  0  0  0
   -1.8625   -0.2470   -1.5419 H   0  0  0  0  0  0  0  0  0  0  0  0
   -3.0330   -1.6591   -0.3328 H   0  0  0  0  0  0  0  0  0  0  0  0
    0.1733   -1.4455   -1.2554 H   0  0  0  0  0  0  0  0  0  0  0  0
    2.2953   -1.4195    0.9568 H   0  0  0  0  0  0  0  0  0  0  0  0
  1  2  1  0
  1  3  1  0
  3  4  1  0
  3  5  1  0
  5  6  1  0
  6  7  1  0
  5  8  1  0
  8  9  1  0
  9 10  1  0
  9 11  1  0
 11 12  1  0
 11  1  1  0
  1 13  1  1
  2 14  1  0
  3 15  1  6
  4 16  1  0
  5 17  1  1
  6 18  1  0
  6 19  1  0
  7 20  1  0
  9 21  1  0
 11 22  1  1
M  END
$$$$
