
     RDKit          3D

 55 58  0  0  0  0  0  0  0  0999 V2000
   -4.4417   -1.0646   -0.1184 C   0  0  2  0  0  0  0  0  0  0  0  0
   -4.7477   -2.1204    0.9498 C   0  0  0  0  0  0  0  0  0  0  0  0
   -3.1265   -0.4591    0.1241 N   0  0  0  0  0  0  0  0  0  0  0  0
   -1.8972   -1.1332   -0.1881 C   0  0  0  0  0  0  0  0  0  0  0  0
   -0.6630   -0.5180    0.1162 C   0  0  0  0  0  0  0  0  0  0  0  0
    0.4994   -1.2237   -0.2007 C   0  0  0  0  0  0  0  0  0  0  0  0
    0.4421   -2.4382   -0.8178 C   0  0  0  0  0  0  0  0  0  0  0  0
   -0.7735   -3.0354   -1.1263 C   0  0  0  0  0  0  0  0  0  0  0  0
   -1.9162   -2.3650   -0.7967 N   0  0  0  0  0  0  0  0  0  0  0  0
    1.7526   -2.7965   -1.0524 C   0  0  0  0  0  0  0  0  0  0  0  0
    2.2335   -4.0101   -1.7763 C   0  0  0  0  0  0  0  0  0  0  0  0
    2.5593   -1.8077   -0.5997 N   0  0  0  0  0  0  0  0  0  0  0  0
    1.7937   -0.8590   -0.0671 N   0  0  0  0  0  0  0  0  0  0  0  0
    2.3213    0.3415    0.5194 C   0  0  0  0  0  0  0  0  0  0  0  0
    1.8293    0.8203    1.7444 C   0  0  0  0  0  0  0  0  0  0  0  0
    2.3740    1.9699    2.3216 C   0  0  0  0  0  0  0  0  0  0  0  0
    3.4204    2.6450    1.6888 C   0  0  0  0  0  0  0  0  0  0  0  0
    3.9306    2.1733    0.4694 C   0  0  0  0  0  0  0  0  0  0  0  0
    5.0912    2.8747   -0.1895 C   0  0  0  0  0  0  0  0  0  0  0  0
    6.4339    2.4333    0.4058 C   0  0  0  0  0  0  0  0  0  0  0  0
    6.7240    0.9902    0.1116 C   0  0  0  0  0  0  0  0  0  0  0  0
    7.1741    0.5935   -1.1835 N   0  0  0  0  0  0  0  0  0  0  0  0
    6.5376    0.1188    1.0023 O   0  0  0  0  0  0  0  0  0  0  0  0
    3.3854    1.0123   -0.1029 C   0  0  0  0  0  0  0  0  0  0  0  0
   -5.5235   -0.0011   -0.1529 C   0  0  0  0  0  0  0  0  0  0  0  0
   -6.2956    0.1845   -1.3146 C   0  0  0  0  0  0  0  0  0  0  0  0
   -7.2955    1.1613   -1.3516 C   0  0  0  0  0  0  0  0  0  0  0  0
   -7.5356    1.9619   -0.2326 C   0  0  0  0  0  0  0  0  0  0  0  0
   -6.7761    1.7877    0.9265 C   0  0  0  0  0  0  0  0  0  0  0  0
   -5.7752    0.8125    0.9693 C   0  0  0  0  0  0  0  0  0  0  0  0
   -4.4169   -1.5817   -1.1036 H   0  0  0  0  0  0  0  0  0  0  0  0
   -5.7635   -2.5415    0.7913 H   0  0  0  0  0  0  0  0  0  0  0  0
   -4.6922   -1.6811    1.9682 H   0  0  0  0  0  0  0  0  0  0  0  0
   -4.0151   -2.9521    0.8877 H   0  0  0  0  0  0  0  0  0  0  0  0
   -3.0706    0.4934    0.5522 H   0  0  0  0  0  0  0  0  0  0  0  0
   -0.6275    0.4682    0.5579 H   0  0  0  0  0  0  0  0  0  0  0  0
   -0.8218   -3.9962   -1.6210 H   0  0  0  0  0  0  0  0  0  0  0  0
    1.6911   -4.9073   -1.4116 H   0  0  0  0  0  0  0  0  0  0  0  0
    3.3205   -4.1522   -1.6007 H   0  0  0  0  0  0  0  0  0  0  0  0
    2.0529   -3.8883   -2.8644 H   0  0  0  0  0  0  0  0  0  0  0  0
    1.0444    0.2892    2.2668 H   0  0  0  0  0  0  0  0  0  0  0  0
    1.9928    2.3313    3.2679 H   0  0  0  0  0  0  0  0  0  0  0  0
    3.8404    3.5286    2.1531 H   0  0  0  0  0  0  0  0  0  0  0  0
    5.0853    2.6907   -1.2866 H   0  0  0  0  0  0  0  0  0  0  0  0
    4.9823    3.9725   -0.0510 H   0  0  0  0  0  0  0  0  0  0  0  0
    6.4363    2.6061    1.5045 H   0  0  0  0  0  0  0  0  0  0  0  0
    7.2439    3.0569   -0.0295 H   0  0  0  0  0  0  0  0  0  0  0  0
    7.3186    1.3022   -1.9365 H   0  0  0  0  0  0  0  0  0  0  0  0
    7.3581   -0.4128   -1.3921 H   0  0  0  0  0  0  0  0  0  0  0  0
    3.7847    0.6322   -1.0356 H   0  0  0  0  0  0  0  0  0  0  0  0
   -6.1260   -0.4257   -2.1929 H   0  0  0  0  0  0  0  0  0  0  0  0
   -7.8848    1.2975   -2.2492 H   0  0  0  0  0  0  0  0  0  0  0  0
   -8.3100    2.7174   -0.2637 H   0  0  0  0  0  0  0  0  0  0  0  0
   -6.9624    2.4091    1.7928 H   0  0  0  0  0  0  0  0  0  0  0  0
   -5.1955    0.6948    1.8759 H   0  0  0  0  0  0  0  0  0  0  0  0
  1  2  1  0
  1  3  1  0
  3  4  1  0
  4  5  2  0
  5  6  1  0
  6  7  2  0
  7  8  1  0
  8  9  2  0
  7 10  1  0
 10 11  1  0
 10 12  2  0
 12 13  1  0
 13 14  1  0
 14 15  2  0
 15 16  1  0
 16 17  2  0
 17 18  1  0
 18 19  1  0
 19 20  1  0
 20 21  1  0
 21 22  1  0
 21 23  2  0
 18 24  2  0
  1 25  1  0
 25 26  2  0
 26 27  1  0
 27 28  2  0
 28 29  1  0
 29 30  2  0
  9  4  1  0
 24 14  1  0
 30 25  1  0
 13  6  1  0
  1 31  1  6
  2 32  1  0
  2 33  1  0
  2 34  1  0
  3 35  1  0
  5 36  1  0
  8 37  1  0
 11 38  1  0
 11 39  1  0
 11 40  1  0
 15 41  1  0
 16 42  1  0
 17 43  1  0
 19 44  1  0
 19 45  1  0
 20 46  1  0
 20 47  1  0
 22 48  1  0
 22 49  1  0
 24 50  1  0
 26 51  1  0
 27 52  1  0
 28 53  1  0
 29 54  1  0
 30 55  1  0
M  END
$$$$
