
     RDKit          3D

 35 37  0  0  0  0  0  0  0  0999 V2000
    4.9962    1.9607    0.9879 C   0  0  0  0  0  0  0  0  0  0  0  0
    4.3679    2.0570   -0.3980 C   0  0  0  0  0  0  0  0  0  0  0  0
    3.1296    1.2823   -0.4560 N   0  0  0  0  0  0  0  0  0  0  0  0
    3.1236   -0.1535   -0.5131 C   0  0  0  0  0  0  0  0  0  0  0  0
    4.2116   -0.7808   -0.6260 O   0  0  0  0  0  0  0  0  0  0  0  0
    1.8629   -0.9164   -0.4539 C   0  0  0  0  0  0  0  0  0  0  0  0
    0.5886   -0.4015   -0.1854 C   0  0  0  0  0  0  0  0  0  0  0  0
   -0.4014   -1.3953   -0.1889 C   0  0  0  0  0  0  0  0  0  0  0  0
   -1.7757   -1.2589    0.0548 C   0  0  0  0  0  0  0  0  0  0  0  0
   -2.5472   -2.3855    0.0404 N   0  0  0  0  0  0  0  0  0  0  0  0
   -2.0176   -3.6217   -0.2050 C   0  0  0  0  0  0  0  0  0  0  0  0
   -2.8635   -4.7690   -0.2080 N   0  0  0  0  0  0  0  0  0  0  0  0
   -0.6831   -3.7603   -0.4457 N   0  0  0  0  0  0  0  0  0  0  0  0
    0.0995   -2.6564   -0.4363 C   0  0  0  0  0  0  0  0  0  0  0  0
    1.7564   -2.5953   -0.6714 S   0  0  0  0  0  0  0  0  0  0  0  0
   -2.4097    0.0529    0.3056 C   0  0  0  0  0  0  0  0  0  0  0  0
   -3.1739    0.2852    1.4692 C   0  0  0  0  0  0  0  0  0  0  0  0
   -3.3528   -0.9421    2.7193 Cl  0  0  0  0  0  0  0  0  0  0  0  0
   -3.7821    1.5310    1.6673 C   0  0  0  0  0  0  0  0  0  0  0  0
   -3.6423    2.5451    0.7153 C   0  0  0  0  0  0  0  0  0  0  0  0
   -4.4073    4.1025    0.9726 Cl  0  0  0  0  0  0  0  0  0  0  0  0
   -2.8929    2.3173   -0.4414 C   0  0  0  0  0  0  0  0  0  0  0  0
   -2.2826    1.0778   -0.6479 C   0  0  0  0  0  0  0  0  0  0  0  0
    5.9104    2.5897    1.0268 H   0  0  0  0  0  0  0  0  0  0  0  0
    4.2799    2.3215    1.7563 H   0  0  0  0  0  0  0  0  0  0  0  0
    5.2776    0.9113    1.2158 H   0  0  0  0  0  0  0  0  0  0  0  0
    5.0819    1.6942   -1.1686 H   0  0  0  0  0  0  0  0  0  0  0  0
    4.1444    3.1242   -0.6141 H   0  0  0  0  0  0  0  0  0  0  0  0
    2.2324    1.8099   -0.5316 H   0  0  0  0  0  0  0  0  0  0  0  0
    0.3876    0.6384    0.0279 H   0  0  0  0  0  0  0  0  0  0  0  0
   -2.4678   -5.7171   -0.3943 H   0  0  0  0  0  0  0  0  0  0  0  0
   -3.8865   -4.6715   -0.0232 H   0  0  0  0  0  0  0  0  0  0  0  0
   -4.3610    1.7125    2.5643 H   0  0  0  0  0  0  0  0  0  0  0  0
   -2.7856    3.0983   -1.1834 H   0  0  0  0  0  0  0  0  0  0  0  0
   -1.7174    0.9136   -1.5573 H   0  0  0  0  0  0  0  0  0  0  0  0
  1  2  1  0
  2  3  1  0
  3  4  1  0
  4  5  2  0
  4  6  1  0
  6  7  2  0
  7  8  1  0
  8  9  2  0
  9 10  1  0
 10 11  2  0
 11 12  1  0
 11 13  1  0
 13 14  2  0
 14 15  1  0
  9 16  1  0
 16 17  2  0
 17 18  1  0
 17 19  1  0
 19 20  2  0
 20 21  1  0
 20 22  1  0
 22 23  2  0
 15  6  1  0
 23 16  1  0
 14  8  1  0
  1 24  1  0
  1 25  1  0
  1 26  1  0
  2 27  1  0
  2 28  1  0
  3 29  1  0
  7 30  1  0
 12 31  1  0
 12 32  1  0
 19 33  1  0
 22 34  1  0
 23 35  1  0
M  END
$$$$
