
     RDKit          3D

 21 22  0  0  0  0  0  0  0  0999 V2000
   -3.4047    0.3916   -0.0726 C   0  0  0  0  0  0  0  0  0  0  0  0
   -1.9585   -0.0221   -0.0731 C   0  0  0  0  0  0  0  0  0  0  0  0
   -1.6335   -1.3253   -0.0679 C   0  0  0  0  0  0  0  0  0  0  0  0
   -0.2276   -1.7666   -0.0366 C   0  0  0  0  0  0  0  0  0  0  0  0
    0.0330   -2.9997   -0.0436 O   0  0  0  0  0  0  0  0  0  0  0  0
    0.8604   -0.7643    0.0040 C   0  0  0  0  0  0  0  0  0  0  0  0
    2.2102   -1.1560    0.0293 C   0  0  0  0  0  0  0  0  0  0  0  0
    3.2215   -0.1930    0.0702 C   0  0  0  0  0  0  0  0  0  0  0  0
    2.8963    1.1647    0.0868 C   0  0  0  0  0  0  0  0  0  0  0  0
    1.5582    1.5662    0.0622 C   0  0  0  0  0  0  0  0  0  0  0  0
    0.5312    0.6067    0.0202 C   0  0  0  0  0  0  0  0  0  0  0  0
   -0.8949    1.0111   -0.0062 C   0  0  0  0  0  0  0  0  0  0  0  0
   -1.2079    2.2325    0.0311 O   0  0  0  0  0  0  0  0  0  0  0  0
   -4.0609   -0.4177   -0.4591 H   0  0  0  0  0  0  0  0  0  0  0  0
   -3.7157    0.6434    0.9627 H   0  0  0  0  0  0  0  0  0  0  0  0
   -3.5493    1.2812   -0.7211 H   0  0  0  0  0  0  0  0  0  0  0  0
   -2.4104   -2.0809   -0.0876 H   0  0  0  0  0  0  0  0  0  0  0  0
    2.4829   -2.2039    0.0176 H   0  0  0  0  0  0  0  0  0  0  0  0
    4.2593   -0.4998    0.0895 H   0  0  0  0  0  0  0  0  0  0  0  0
    3.6828    1.9077    0.1188 H   0  0  0  0  0  0  0  0  0  0  0  0
    1.3278    2.6240    0.0754 H   0  0  0  0  0  0  0  0  0  0  0  0
  1  2  1  0
  2  3  2  0
  3  4  1  0
  4  5  2  0
  4  6  1  0
  6  7  2  0
  7  8  1  0
  8  9  2  0
  9 10  1  0
 10 11  2  0
 11 12  1  0
 12 13  2  0
 12  2  1  0
 11  6  1  0
  1 14  1  0
  1 15  1  0
  1 16  1  0
  3 17  1  0
  7 18  1  0
  8 19  1  0
  9 20  1  0
 10 21  1  0
M  END
$$$$
