
     RDKit          3D

 19 20  0  0  0  0  0  0  0  0999 V2000
    3.4903   -0.6151    0.2190 N   0  0  0  0  0  0  0  0  0  0  0  0
    2.1508   -0.1390    0.0656 C   0  0  0  0  0  0  0  0  0  0  0  0
    1.0843   -0.9476    0.3277 N   0  0  0  0  0  4  0  0  0  0  0  0
    1.2979   -2.2435    0.7468 O   0  0  0  0  0  1  0  0  0  0  0  0
   -0.1877   -0.4733    0.1749 C   0  0  0  0  0  0  0  0  0  0  0  0
   -0.3809    0.8582   -0.2558 C   0  0  0  0  0  0  0  0  0  0  0  0
   -1.6861    1.3576   -0.4167 C   0  0  0  0  0  0  0  0  0  0  0  0
   -2.7877    0.5405   -0.1519 C   0  0  0  0  0  0  0  0  0  0  0  0
   -2.5994   -0.7757    0.2738 C   0  0  0  0  0  0  0  0  0  0  0  0
   -1.3082   -1.2840    0.4376 C   0  0  0  0  0  0  0  0  0  0  0  0
    0.7149    1.6312   -0.5064 N   0  0  0  0  0  4  0  0  0  0  0  0
    0.5762    2.9345   -0.9279 O   0  0  0  0  0  1  0  0  0  0  0  0
    1.9424    1.1378   -0.3473 N   0  0  0  0  0  0  0  0  0  0  0  0
    3.6912   -1.5896    0.5342 H   0  0  0  0  0  0  0  0  0  0  0  0
    4.2962    0.0166    0.0143 H   0  0  0  0  0  0  0  0  0  0  0  0
   -1.8569    2.3746   -0.7457 H   0  0  0  0  0  0  0  0  0  0  0  0
   -3.7904    0.9287   -0.2770 H   0  0  0  0  0  0  0  0  0  0  0  0
   -3.4568   -1.4043    0.4775 H   0  0  0  0  0  0  0  0  0  0  0  0
   -1.1902   -2.3077    0.7688 H   0  0  0  0  0  0  0  0  0  0  0  0
  1  2  1  0
  2  3  2  0
  3  4  1  0
  3  5  1  0
  5  6  2  0
  6  7  1  0
  7  8  2  0
  8  9  1  0
  9 10  2  0
  6 11  1  0
 11 12  1  0
 11 13  2  0
 13  2  1  0
 10  5  1  0
  1 14  1  0
  1 15  1  0
  7 16  1  0
  8 17  1  0
  9 18  1  0
 10 19  1  0
M  CHG  4   3   1   4  -1  11   1  12  -1
M  END
$$$$
