
     RDKit          3D

 47 47  0  0  0  0  0  0  0  0999 V2000
   -0.2415   -0.0802    0.3981 C   0  0  2  0  0  0  0  0  0  0  0  0
    0.7914   -0.2356    1.5306 C   0  0  0  0  0  0  0  0  0  0  0  0
    2.2022   -0.2684    0.9973 C   0  0  0  0  0  0  0  0  0  0  0  0
    2.8661    0.9272    0.6823 C   0  0  0  0  0  0  0  0  0  0  0  0
    4.1577    0.8981    0.1491 C   0  0  0  0  0  0  0  0  0  0  0  0
    4.8012   -0.3275   -0.0850 C   0  0  0  0  0  0  0  0  0  0  0  0
    6.1983   -0.3586   -0.6496 C   0  0  0  0  0  0  0  0  0  0  0  0
    7.5976   -0.3717    0.7313 Se  0  0  0  0  0  4  0  0  0  0  0  0
    6.7225    0.8680    1.7701 O   0  0  0  0  0  0  0  0  0  0  0  0
    6.8861   -1.6078    1.5532 O   0  0  0  0  0  0  0  0  0  0  0  0
    4.1334   -1.5235    0.2218 C   0  0  0  0  0  0  0  0  0  0  0  0
    2.8424   -1.4944    0.7563 C   0  0  0  0  0  0  0  0  0  0  0  0
   -1.5869    0.0946    0.9548 N   0  0  0  0  0  0  0  0  0  0  0  0
   -2.6902    0.5463    0.1613 C   0  0  0  0  0  0  0  0  0  0  0  0
   -2.5193    0.8254   -1.0566 O   0  0  0  0  0  0  0  0  0  0  0  0
   -3.9521    0.6693    0.7616 O   0  0  0  0  0  0  0  0  0  0  0  0
   -5.1622    1.0949    0.1169 C   0  0  0  0  0  0  0  0  0  0  0  0
   -5.5365    0.1308   -1.0252 C   0  0  0  0  0  0  0  0  0  0  0  0
   -5.0177    2.5345   -0.4129 C   0  0  0  0  0  0  0  0  0  0  0  0
   -6.2753    1.0656    1.1754 C   0  0  0  0  0  0  0  0  0  0  0  0
   -0.2161   -1.2772   -0.5115 C   0  0  0  0  0  0  0  0  0  0  0  0
   -0.7414   -2.3635   -0.1415 O   0  0  0  0  0  0  0  0  0  0  0  0
    0.4377   -1.1862   -1.7435 O   0  0  0  0  0  0  0  0  0  0  0  0
    0.5644   -2.2936   -2.6263 C   0  0  0  0  0  0  0  0  0  0  0  0
    0.0198    0.8297   -0.1874 H   0  0  0  0  0  0  0  0  0  0  0  0
    0.5788   -1.1580    2.1158 H   0  0  0  0  0  0  0  0  0  0  0  0
    0.6916    0.6200    2.2343 H   0  0  0  0  0  0  0  0  0  0  0  0
    2.3814    1.8816    0.8471 H   0  0  0  0  0  0  0  0  0  0  0  0
    4.6561    1.8313   -0.0824 H   0  0  0  0  0  0  0  0  0  0  0  0
    6.3285   -1.2583   -1.2881 H   0  0  0  0  0  0  0  0  0  0  0  0
    6.3634    0.5258   -1.3011 H   0  0  0  0  0  0  0  0  0  0  0  0
    7.2462    1.7006    1.6569 H   0  0  0  0  0  0  0  0  0  0  0  0
    4.6114   -2.4789    0.0444 H   0  0  0  0  0  0  0  0  0  0  0  0
    2.3393   -2.4279    0.9760 H   0  0  0  0  0  0  0  0  0  0  0  0
   -1.7656   -0.1190    1.9625 H   0  0  0  0  0  0  0  0  0  0  0  0
   -6.5361    0.3852   -1.4394 H   0  0  0  0  0  0  0  0  0  0  0  0
   -4.8048    0.1841   -1.8568 H   0  0  0  0  0  0  0  0  0  0  0  0
   -5.5637   -0.9148   -0.6504 H   0  0  0  0  0  0  0  0  0  0  0  0
   -4.6728    3.2091    0.3998 H   0  0  0  0  0  0  0  0  0  0  0  0
   -4.2865    2.5887   -1.2450 H   0  0  0  0  0  0  0  0  0  0  0  0
   -5.9915    2.9094   -0.7957 H   0  0  0  0  0  0  0  0  0  0  0  0
   -7.2474    1.3859    0.7416 H   0  0  0  0  0  0  0  0  0  0  0  0
   -6.0234    1.7448    2.0183 H   0  0  0  0  0  0  0  0  0  0  0  0
   -6.3916    0.0386    1.5838 H   0  0  0  0  0  0  0  0  0  0  0  0
   -0.4410   -2.6570   -2.9274 H   0  0  0  0  0  0  0  0  0  0  0  0
    1.1188   -1.9753   -3.5327 H   0  0  0  0  0  0  0  0  0  0  0  0
    1.1272   -3.1120   -2.1293 H   0  0  0  0  0  0  0  0  0  0  0  0
  1  2  1  0
  2  3  1  0
  3  4  2  0
  4  5  1  0
  5  6  2  0
  6  7  1  0
  7  8  1  0
  8  9  1  0
  8 10  2  0
  6 11  1  0
 11 12  2  0
  1 13  1  0
 13 14  1  0
 14 15  2  0
 14 16  1  0
 16 17  1  0
 17 18  1  0
 17 19  1  0
 17 20  1  0
  1 21  1  0
 21 22  2  0
 21 23  1  0
 23 24  1  0
 12  3  1  0
  1 25  1  6
  2 26  1  0
  2 27  1  0
  4 28  1  0
  5 29  1  0
  7 30  1  0
  7 31  1  0
  9 32  1  0
 11 33  1  0
 12 34  1  0
 13 35  1  0
 18 36  1  0
 18 37  1  0
 18 38  1  0
 19 39  1  0
 19 40  1  0
 19 41  1  0
 20 42  1  0
 20 43  1  0
 20 44  1  0
 24 45  1  0
 24 46  1  0
 24 47  1  0
M  END
$$$$
