
     RDKit          3D

 58 62  0  0  0  0  0  0  0  0999 V2000
    4.9671    1.4807   -0.1366 C   0  0  2  0  0  0  0  0  0  0  0  0
    3.8725    2.0570    0.7611 C   0  0  0  0  0  0  0  0  0  0  0  0
    3.5083    1.3709   -0.5516 C   0  0  2  0  0  0  0  0  0  0  0  0
    2.8274   -0.0337   -0.4828 C   0  0  1  0  0  0  0  0  0  0  0  0
    2.9819   -0.6651   -1.8872 C   0  0  0  0  0  0  0  0  0  0  0  0
    3.4791   -0.9986    0.5225 C   0  0  0  0  0  0  0  0  0  0  0  0
    4.7877   -0.9081    0.8177 C   0  0  0  0  0  0  0  0  0  0  0  0
    5.6002    0.2347    0.3929 C   0  0  0  0  0  0  0  0  0  0  0  0
    6.8505    0.1923    0.5338 O   0  0  0  0  0  0  0  0  0  0  0  0
    2.6613   -2.1105    1.1009 C   0  0  0  0  0  0  0  0  0  0  0  0
    3.3853   -3.3563    2.1206 Cl  0  0  0  0  0  0  0  0  0  0  0  0
    1.3380   -2.1807    0.9050 C   0  0  0  0  0  0  0  0  0  0  0  0
    0.5916   -1.2331   -0.0031 C   0  0  1  0  0  0  0  0  0  0  0  0
   -0.8552   -0.9933    0.4885 C   0  0  2  0  0  0  0  0  0  0  0  0
   -1.7510   -2.2038    0.7203 C   0  0  0  0  0  0  0  0  0  0  0  0
   -3.1851   -1.6536    0.6443 C   0  0  0  0  0  0  0  0  0  0  0  0
   -3.0925   -0.1528    0.2281 C   0  0  2  0  0  0  0  0  0  0  0  0
   -3.1118    0.5681    1.4848 O   0  0  0  0  0  0  0  0  0  0  0  0
   -3.1782    1.9542    1.7179 C   0  0  0  0  0  0  0  0  0  0  0  0
   -3.1858    2.4479    3.1239 C   0  0  0  0  0  0  0  0  0  0  0  0
   -3.1745    2.7886    0.7731 O   0  0  0  0  0  0  0  0  0  0  0  0
   -4.3106    0.2509   -0.6433 C   0  0  0  0  0  0  0  0  0  0  0  0
   -4.8682   -0.5684   -1.7831 C   0  0  0  0  0  0  0  0  0  0  0  0
   -4.9173    1.2788   -0.3902 O   0  0  0  0  0  0  0  0  0  0  0  0
   -1.6659   -0.0771   -0.4504 C   0  0  2  0  0  0  0  0  0  0  0  0
   -1.7220   -0.6259   -1.9144 C   0  0  0  0  0  0  0  0  0  0  0  0
   -0.9515    1.3012   -0.4673 C   0  0  0  0  0  0  0  0  0  0  0  0
    0.5282    1.1924   -0.9105 C   0  0  0  0  0  0  0  0  0  0  0  0
    1.3233    0.1425   -0.0736 C   0  0  2  0  0  0  0  0  0  0  0  0
    5.5771    2.2308   -0.6838 H   0  0  0  0  0  0  0  0  0  0  0  0
    3.7880    3.1632    0.7229 H   0  0  0  0  0  0  0  0  0  0  0  0
    3.6343    1.4870    1.6846 H   0  0  0  0  0  0  0  0  0  0  0  0
    3.2368    2.0619   -1.3791 H   0  0  0  0  0  0  0  0  0  0  0  0
    2.4625   -0.0697   -2.6648 H   0  0  0  0  0  0  0  0  0  0  0  0
    2.5998   -1.7060   -1.9200 H   0  0  0  0  0  0  0  0  0  0  0  0
    4.0568   -0.7095   -2.1675 H   0  0  0  0  0  0  0  0  0  0  0  0
    5.2745   -1.6484    1.4374 H   0  0  0  0  0  0  0  0  0  0  0  0
    0.7998   -3.0170    1.3328 H   0  0  0  0  0  0  0  0  0  0  0  0
    0.5617   -1.7164   -0.9974 H   0  0  0  0  0  0  0  0  0  0  0  0
   -0.7670   -0.4935    1.4843 H   0  0  0  0  0  0  0  0  0  0  0  0
   -1.5834   -2.9726   -0.0655 H   0  0  0  0  0  0  0  0  0  0  0  0
   -1.5579   -2.6589    1.7163 H   0  0  0  0  0  0  0  0  0  0  0  0
   -3.7652   -2.2822   -0.0573 H   0  0  0  0  0  0  0  0  0  0  0  0
   -3.6845   -1.7578    1.6335 H   0  0  0  0  0  0  0  0  0  0  0  0
   -2.1478    2.6850    3.4367 H   0  0  0  0  0  0  0  0  0  0  0  0
   -3.8123    3.3612    3.2053 H   0  0  0  0  0  0  0  0  0  0  0  0
   -3.6001    1.6681    3.7966 H   0  0  0  0  0  0  0  0  0  0  0  0
   -4.3141   -1.4981   -1.9925 H   0  0  0  0  0  0  0  0  0  0  0  0
   -4.8677    0.0443   -2.7090 H   0  0  0  0  0  0  0  0  0  0  0  0
   -5.9170   -0.8482   -1.5499 H   0  0  0  0  0  0  0  0  0  0  0  0
   -2.1203   -1.6577   -1.9555 H   0  0  0  0  0  0  0  0  0  0  0  0
   -0.7371   -0.6755   -2.4104 H   0  0  0  0  0  0  0  0  0  0  0  0
   -2.3414    0.0383   -2.5509 H   0  0  0  0  0  0  0  0  0  0  0  0
   -1.4900    2.0038   -1.1393 H   0  0  0  0  0  0  0  0  0  0  0  0
   -0.9249    1.7381    0.5498 H   0  0  0  0  0  0  0  0  0  0  0  0
    0.5927    0.9835   -1.9944 H   0  0  0  0  0  0  0  0  0  0  0  0
    0.9790    2.1967   -0.7645 H   0  0  0  0  0  0  0  0  0  0  0  0
    1.3348    0.5507    0.9648 H   0  0  0  0  0  0  0  0  0  0  0  0
  1  2  1  0
  2  3  1  0
  3  4  1  0
  4  5  1  6
  4  6  1  0
  6  7  2  0
  7  8  1  0
  8  9  2  0
  6 10  1  0
 10 11  1  0
 10 12  2  0
 12 13  1  0
 13 14  1  0
 14 15  1  0
 15 16  1  0
 16 17  1  0
 17 18  1  1
 18 19  1  0
 19 20  1  0
 19 21  2  0
 17 22  1  0
 22 23  1  0
 22 24  2  0
 17 25  1  0
 25 26  1  6
 25 27  1  0
 27 28  1  0
 28 29  1  0
  3  1  1  0
 29  4  1  0
  8  1  1  0
 29 13  1  0
 25 14  1  0
  1 30  1  6
  2 31  1  0
  2 32  1  0
  3 33  1  6
  5 34  1  0
  5 35  1  0
  5 36  1  0
  7 37  1  0
 12 38  1  0
 13 39  1  6
 14 40  1  1
 15 41  1  0
 15 42  1  0
 16 43  1  0
 16 44  1  0
 20 45  1  0
 20 46  1  0
 20 47  1  0
 23 48  1  0
 23 49  1  0
 23 50  1  0
 26 51  1  0
 26 52  1  0
 26 53  1  0
 27 54  1  0
 27 55  1  0
 28 56  1  0
 28 57  1  0
 29 58  1  1
M  END
$$$$
