
     RDKit          3D

 43 45  0  0  0  0  0  0  0  0999 V2000
    1.0191    0.3720   -0.6775 C   0  0  2  0  0  0  0  0  0  0  0  0
    0.0827    0.7131    0.4377 C   0  0  0  0  0  0  0  0  0  0  0  0
   -1.1938    0.0157   -0.0272 C   0  0  2  0  0  0  0  0  0  0  0  0
   -0.8404   -0.9238   -1.0317 O   0  0  0  0  0  0  0  0  0  0  0  0
    0.5149   -0.8819   -1.2228 N   0  0  0  0  0  0  0  0  0  0  0  0
   -2.0231    1.0163   -0.6132 O   0  0  0  0  0  0  0  0  0  0  0  0
   -3.4214    0.7390   -0.6719 C   0  0  2  0  0  0  0  0  0  0  0  0
   -4.1751    1.6457    0.3184 C   0  0  0  0  0  0  0  0  0  0  0  0
   -3.8425    2.9908    0.1025 O   0  0  0  0  0  0  0  0  0  0  0  0
   -3.8231   -0.7492   -0.5181 C   0  0  1  0  0  0  0  0  0  0  0  0
   -3.4228   -1.4491   -1.6699 O   0  0  0  0  0  0  0  0  0  0  0  0
   -3.2043   -1.3963    0.7441 C   0  0  2  0  0  0  0  0  0  0  0  0
   -4.1125   -1.3335    1.8152 O   0  0  0  0  0  0  0  0  0  0  0  0
   -1.8860   -0.7087    1.1652 C   0  0  1  0  0  0  0  0  0  0  0  0
   -1.0282   -1.6378    1.7858 O   0  0  0  0  0  0  0  0  0  0  0  0
    2.4764    0.2840   -0.2502 C   0  0  0  0  0  0  0  0  0  0  0  0
    3.4278    1.1347   -0.8396 C   0  0  0  0  0  0  0  0  0  0  0  0
    4.7715    1.0708   -0.4595 C   0  0  0  0  0  0  0  0  0  0  0  0
    5.1908    0.1465    0.5076 C   0  0  0  0  0  0  0  0  0  0  0  0
    6.6256    0.1063    0.9431 C   0  0  0  0  0  0  0  0  0  0  0  0
    4.2447   -0.6918    1.1135 C   0  0  0  0  0  0  0  0  0  0  0  0
    2.9008   -0.6294    0.7348 C   0  0  0  0  0  0  0  0  0  0  0  0
    0.9065    1.1473   -1.4696 H   0  0  0  0  0  0  0  0  0  0  0  0
   -0.0430    1.8148    0.5351 H   0  0  0  0  0  0  0  0  0  0  0  0
    0.4476    0.3218    1.4113 H   0  0  0  0  0  0  0  0  0  0  0  0
    0.9120   -1.7023   -0.7094 H   0  0  0  0  0  0  0  0  0  0  0  0
   -3.7625    1.0471   -1.6850 H   0  0  0  0  0  0  0  0  0  0  0  0
   -3.9114    1.3866    1.3625 H   0  0  0  0  0  0  0  0  0  0  0  0
   -5.2750    1.5050    0.2100 H   0  0  0  0  0  0  0  0  0  0  0  0
   -4.3293    3.2770   -0.7142 H   0  0  0  0  0  0  0  0  0  0  0  0
   -4.9365   -0.8013   -0.4529 H   0  0  0  0  0  0  0  0  0  0  0  0
   -3.9488   -2.2911   -1.6961 H   0  0  0  0  0  0  0  0  0  0  0  0
   -2.9926   -2.4691    0.5195 H   0  0  0  0  0  0  0  0  0  0  0  0
   -4.8033   -2.0278    1.6507 H   0  0  0  0  0  0  0  0  0  0  0  0
   -2.1180    0.0698    1.9244 H   0  0  0  0  0  0  0  0  0  0  0  0
   -0.7622   -2.3100    1.1061 H   0  0  0  0  0  0  0  0  0  0  0  0
    3.1312    1.8537   -1.5931 H   0  0  0  0  0  0  0  0  0  0  0  0
    5.4850    1.7425   -0.9207 H   0  0  0  0  0  0  0  0  0  0  0  0
    6.9063   -0.9164    1.2737 H   0  0  0  0  0  0  0  0  0  0  0  0
    7.2974    0.3926    0.1060 H   0  0  0  0  0  0  0  0  0  0  0  0
    6.7755    0.8132    1.7857 H   0  0  0  0  0  0  0  0  0  0  0  0
    4.5471   -1.3950    1.8799 H   0  0  0  0  0  0  0  0  0  0  0  0
    2.1931   -1.2918    1.2169 H   0  0  0  0  0  0  0  0  0  0  0  0
  1  2  1  0
  2  3  1  0
  3  4  1  6
  4  5  1  0
  3  6  1  0
  6  7  1  0
  7  8  1  0
  8  9  1  0
  7 10  1  0
 10 11  1  0
 10 12  1  0
 12 13  1  0
 12 14  1  0
 14 15  1  0
  1 16  1  0
 16 17  2  0
 17 18  1  0
 18 19  2  0
 19 20  1  0
 19 21  1  0
 21 22  2  0
  5  1  1  0
 22 16  1  0
 14  3  1  0
  1 23  1  6
  2 24  1  0
  2 25  1  0
  5 26  1  0
  7 27  1  6
  8 28  1  0
  8 29  1  0
  9 30  1  0
 10 31  1  1
 11 32  1  0
 12 33  1  6
 13 34  1  0
 14 35  1  1
 15 36  1  0
 17 37  1  0
 18 38  1  0
 20 39  1  0
 20 40  1  0
 20 41  1  0
 21 42  1  0
 22 43  1  0
M  END
$$$$
