
     RDKit          3D

 88 90  0  0  0  0  0  0  0  0999 V2000
   -3.2044   -1.6522    1.1002 C   0  0  1  0  0  0  0  0  0  0  0  0
   -4.1971   -1.5242    2.0898 O   0  0  0  0  0  0  0  0  0  0  0  0
   -3.2987   -0.4991    0.1297 C   0  0  0  0  0  0  0  0  0  0  0  0
   -2.9438   -0.7194   -1.2045 O   0  0  0  0  0  0  0  0  0  0  0  0
   -3.7038    0.6651    0.5547 N   0  0  0  0  0  0  0  0  0  0  0  0
   -3.8718    1.8737   -0.2501 C   0  0  0  0  0  0  0  0  0  0  0  0
   -5.1718    1.8260   -1.0610 C   0  0  0  0  0  0  0  0  0  0  0  0
   -6.3773    1.7863   -0.1518 C   0  0  0  0  0  0  0  0  0  0  0  0
   -6.6828    2.9368    0.5702 O   0  0  0  0  0  0  0  0  0  0  0  0
   -7.1248    0.7289    0.0074 N   0  0  0  0  0  0  0  0  0  0  0  0
   -6.9962   -0.5636   -0.6673 C   0  0  0  0  0  0  0  0  0  0  0  0
   -7.6289   -0.5265   -2.0646 C   0  0  0  0  0  0  0  0  0  0  0  0
   -9.1454   -0.3174   -1.9990 C   0  0  0  0  0  0  0  0  0  0  0  0
   -9.7094   -0.3152   -3.3429 N   0  0  0  0  0  4  0  0  0  0  0  0
   -9.6996    0.8426   -4.0851 O   0  0  0  0  0  1  0  0  0  0  0  0
  -10.0177   -1.3928   -3.8920 O   0  0  0  0  0  0  0  0  0  0  0  0
   -1.7944   -1.7998    1.7662 C   0  0  0  0  0  0  0  0  0  0  0  0
   -0.7074   -2.0427    0.6910 C   0  0  0  0  0  0  0  0  0  0  0  0
   -1.8185   -3.0376    2.6938 C   0  0  0  0  0  0  0  0  0  0  0  0
   -1.4185   -0.5585    2.6223 C   0  0  0  0  0  0  0  0  0  0  0  0
   -1.1626    0.5515    1.7940 O   0  0  0  0  0  0  0  0  0  0  0  0
   -0.6762    1.8691    2.7638 P   0  0  0  0  0  5  0  0  0  0  0  0
    0.6051    1.4192    3.7759 O   0  0  0  0  0  0  0  0  0  0  0  0
   -1.8423    2.3231    3.6130 O   0  0  0  0  0  0  0  0  0  0  0  0
   -0.1753    3.1716    1.7905 O   0  0  0  0  0  0  0  0  0  0  0  0
    0.6880    2.5280    0.4714 P   0  0  0  0  0  5  0  0  0  0  0  0
    1.6677    3.7508   -0.1696 O   0  0  0  0  0  0  0  0  0  0  0  0
   -0.2946    2.0774   -0.5874 O   0  0  0  0  0  0  0  0  0  0  0  0
    1.6658    1.2132    0.9561 O   0  0  0  0  0  0  0  0  0  0  0  0
    2.3673    0.7438   -0.1717 C   0  0  0  0  0  0  0  0  0  0  0  0
    3.2508   -0.4466    0.2242 C   0  0  1  0  0  0  0  0  0  0  0  0
    3.8774   -0.9570   -0.9353 O   0  0  0  0  0  0  0  0  0  0  0  0
    5.2692   -0.7801   -0.7908 C   0  0  1  0  0  0  0  0  0  0  0  0
    5.8417   -0.2604   -2.0334 N   0  0  0  0  0  0  0  0  0  0  0  0
    5.3095    0.6607   -2.8794 C   0  0  0  0  0  0  0  0  0  0  0  0
    6.1433    1.0009   -3.9012 N   0  0  0  0  0  0  0  0  0  0  0  0
    7.2362    0.2546   -3.6531 C   0  0  0  0  0  0  0  0  0  0  0  0
    8.4392    0.1897   -4.3469 C   0  0  0  0  0  0  0  0  0  0  0  0
    8.6707    0.9611   -5.5257 N   0  0  0  0  0  0  0  0  0  0  0  0
    9.4079   -0.6414   -3.8578 N   0  0  0  0  0  0  0  0  0  0  0  0
    9.2059   -1.3845   -2.7221 C   0  0  0  0  0  0  0  0  0  0  0  0
    8.0193   -1.3110   -2.0467 N   0  0  0  0  0  0  0  0  0  0  0  0
    7.0597   -0.4900   -2.5380 C   0  0  0  0  0  0  0  0  0  0  0  0
    5.5228    0.1792    0.3630 C   0  0  2  0  0  0  0  0  0  0  0  0
    6.7251   -0.1113    1.0282 O   0  0  0  0  0  0  0  0  0  0  0  0
    4.3263   -0.0522    1.2482 C   0  0  2  0  0  0  0  0  0  0  0  0
    4.5878   -1.1360    2.1228 O   0  0  0  0  0  0  0  0  0  0  0  0
    3.6406   -0.9833    3.5367 P   0  0  0  0  0  5  0  0  0  0  0  0
    4.0335   -2.2418    4.5967 O   0  0  0  0  0  0  0  0  0  0  0  0
    3.9554    0.4938    4.3013 O   0  0  0  0  0  0  0  0  0  0  0  0
    2.1711   -1.0702    3.1946 O   0  0  0  0  0  0  0  0  0  0  0  0
   -3.4027   -2.5847    0.5198 H   0  0  0  0  0  0  0  0  0  0  0  0
   -5.0661   -1.7404    1.6599 H   0  0  0  0  0  0  0  0  0  0  0  0
   -2.9633    0.0006   -1.9139 H   0  0  0  0  0  0  0  0  0  0  0  0
   -2.9991    2.0235   -0.9194 H   0  0  0  0  0  0  0  0  0  0  0  0
   -3.9011    2.7489    0.4337 H   0  0  0  0  0  0  0  0  0  0  0  0
   -5.2349    2.7501   -1.6743 H   0  0  0  0  0  0  0  0  0  0  0  0
   -5.1416    0.9812   -1.7744 H   0  0  0  0  0  0  0  0  0  0  0  0
   -7.4742    2.9642    1.2025 H   0  0  0  0  0  0  0  0  0  0  0  0
   -5.9334   -0.8732   -0.7296 H   0  0  0  0  0  0  0  0  0  0  0  0
   -7.5139   -1.3332   -0.0561 H   0  0  0  0  0  0  0  0  0  0  0  0
   -7.1723    0.2840   -2.6711 H   0  0  0  0  0  0  0  0  0  0  0  0
   -7.4183   -1.4925   -2.5729 H   0  0  0  0  0  0  0  0  0  0  0  0
   -9.6154   -1.1285   -1.4002 H   0  0  0  0  0  0  0  0  0  0  0  0
   -9.3746    0.6525   -1.5068 H   0  0  0  0  0  0  0  0  0  0  0  0
    0.2824   -2.2100    1.1676 H   0  0  0  0  0  0  0  0  0  0  0  0
   -0.9545   -2.9371    0.0795 H   0  0  0  0  0  0  0  0  0  0  0  0
   -0.6073   -1.1741    0.0070 H   0  0  0  0  0  0  0  0  0  0  0  0
   -2.1083   -3.9491    2.1274 H   0  0  0  0  0  0  0  0  0  0  0  0
   -2.5430   -2.8981    3.5248 H   0  0  0  0  0  0  0  0  0  0  0  0
   -0.8174   -3.2168    3.1430 H   0  0  0  0  0  0  0  0  0  0  0  0
   -2.2487   -0.3328    3.3294 H   0  0  0  0  0  0  0  0  0  0  0  0
   -0.5111   -0.8073    3.2174 H   0  0  0  0  0  0  0  0  0  0  0  0
    0.9245    2.2683    4.1730 H   0  0  0  0  0  0  0  0  0  0  0  0
    1.0442    4.4921   -0.3759 H   0  0  0  0  0  0  0  0  0  0  0  0
    3.0151    1.5434   -0.5972 H   0  0  0  0  0  0  0  0  0  0  0  0
    1.6568    0.3921   -0.9542 H   0  0  0  0  0  0  0  0  0  0  0  0
    2.5934   -1.2400    0.6395 H   0  0  0  0  0  0  0  0  0  0  0  0
    5.7174   -1.7737   -0.5623 H   0  0  0  0  0  0  0  0  0  0  0  0
    4.3265    1.0946   -2.7514 H   0  0  0  0  0  0  0  0  0  0  0  0
    9.5851    0.8939   -6.0251 H   0  0  0  0  0  0  0  0  0  0  0  0
    7.9355    1.5989   -5.9041 H   0  0  0  0  0  0  0  0  0  0  0  0
    9.9915   -2.0319   -2.3575 H   0  0  0  0  0  0  0  0  0  0  0  0
    5.5175    1.2381    0.0084 H   0  0  0  0  0  0  0  0  0  0  0  0
    7.4550    0.2364    0.4526 H   0  0  0  0  0  0  0  0  0  0  0  0
    4.0976    0.8996    1.7842 H   0  0  0  0  0  0  0  0  0  0  0  0
    3.8997   -3.0682    4.0674 H   0  0  0  0  0  0  0  0  0  0  0  0
    4.9349    0.4968    4.4473 H   0  0  0  0  0  0  0  0  0  0  0  0
  1  2  1  0
  1  3  1  0
  3  4  1  0
  3  5  2  3
  5  6  1  0
  6  7  1  0
  7  8  1  0
  8  9  1  0
  8 10  2  3
 10 11  1  0
 11 12  1  0
 12 13  1  0
 13 14  1  0
 14 15  1  0
 14 16  2  0
  1 17  1  0
 17 18  1  0
 17 19  1  0
 17 20  1  0
 20 21  1  0
 21 22  1  0
 22 23  1  0
 22 24  2  0
 22 25  1  0
 25 26  1  0
 26 27  1  0
 26 28  2  0
 26 29  1  0
 29 30  1  0
 30 31  1  0
 31 32  1  0
 32 33  1  0
 33 34  1  0
 34 35  1  0
 35 36  2  0
 36 37  1  0
 37 38  2  0
 38 39  1  0
 38 40  1  0
 40 41  2  0
 41 42  1  0
 42 43  2  0
 33 44  1  0
 44 45  1  0
 44 46  1  0
 46 47  1  0
 47 48  1  0
 48 49  1  0
 48 50  1  0
 48 51  2  0
 46 31  1  0
 43 34  1  0
 43 37  1  0
  1 52  1  6
  2 53  1  0
  4 54  1  0
  6 55  1  0
  6 56  1  0
  7 57  1  0
  7 58  1  0
  9 59  1  0
 11 60  1  0
 11 61  1  0
 12 62  1  0
 12 63  1  0
 13 64  1  0
 13 65  1  0
 18 66  1  0
 18 67  1  0
 18 68  1  0
 19 69  1  0
 19 70  1  0
 19 71  1  0
 20 72  1  0
 20 73  1  0
 23 74  1  0
 27 75  1  0
 30 76  1  0
 30 77  1  0
 31 78  1  1
 33 79  1  1
 35 80  1  0
 39 81  1  0
 39 82  1  0
 41 83  1  0
 44 84  1  6
 45 85  1  0
 46 86  1  1
 49 87  1  0
 50 88  1  0
M  CHG  2  14   1  15  -1
M  END
$$$$
