
     RDKit          3D

 56 58  0  0  0  0  0  0  0  0999 V2000
    6.6734   -2.1883   -0.9336 C   0  0  0  0  0  0  0  0  0  0  0  0
    5.8663   -1.4132    0.0552 C   0  0  0  0  0  0  0  0  0  0  0  0
    4.5956   -0.8960   -0.1810 C   0  0  0  0  0  0  0  0  0  0  0  0
    4.2133   -0.3318    1.0182 C   0  0  0  0  0  0  0  0  0  0  0  0
    5.2346   -0.5352    1.9108 C   0  0  0  0  0  0  0  0  0  0  0  0
    6.2496   -1.2015    1.3358 N   0  0  0  0  0  0  0  0  0  0  0  0
    5.1544   -0.0936    3.2295 C   0  0  0  0  0  0  0  0  0  0  0  0
    3.9850    0.5778    3.6272 C   0  0  0  0  0  0  0  0  0  0  0  0
    2.9310    0.7887    2.7108 C   0  0  0  0  0  0  0  0  0  0  0  0
    3.0364    0.3267    1.3762 C   0  0  0  0  0  0  0  0  0  0  0  0
    2.0244    0.5009    0.4224 O   0  0  0  0  0  0  0  0  0  0  0  0
    0.7698    1.1228    0.6885 C   0  0  0  0  0  0  0  0  0  0  0  0
   -0.0986    1.1177   -0.5739 C   0  0  0  0  0  0  0  0  0  0  0  0
   -0.3720   -0.3099   -1.0829 C   0  0  0  0  0  0  0  0  0  0  0  0
   -1.2182   -1.0418   -0.1217 N   0  0  0  0  0  0  0  0  0  0  0  0
   -2.1164   -2.0660   -0.7099 C   0  0  0  0  0  0  0  0  0  0  0  0
   -1.3444   -3.0564   -1.6116 C   0  0  0  0  0  0  0  0  0  0  0  0
   -3.2553   -1.3900   -1.5058 C   0  0  0  0  0  0  0  0  0  0  0  0
   -2.7594   -2.8593    0.4474 C   0  0  0  0  0  0  0  0  0  0  0  0
   -1.3328    1.7765   -0.2852 O   0  0  0  0  0  0  0  0  0  0  0  0
   -2.2295    2.2119   -1.2691 C   0  0  0  0  0  0  0  0  0  0  0  0
   -1.8945    2.1911   -2.4858 O   0  0  0  0  0  0  0  0  0  0  0  0
   -3.5720    2.6913   -0.8769 C   0  0  0  0  0  0  0  0  0  0  0  0
   -3.9631    2.6771    0.4744 C   0  0  0  0  0  0  0  0  0  0  0  0
   -5.2362    3.1195    0.8469 C   0  0  0  0  0  0  0  0  0  0  0  0
   -6.1305    3.5788   -0.1227 C   0  0  0  0  0  0  0  0  0  0  0  0
   -5.7537    3.5959   -1.4675 C   0  0  0  0  0  0  0  0  0  0  0  0
   -4.4820    3.1543   -1.8459 C   0  0  0  0  0  0  0  0  0  0  0  0
    6.4045   -3.2629   -0.8685 H   0  0  0  0  0  0  0  0  0  0  0  0
    6.4722   -1.8221   -1.9624 H   0  0  0  0  0  0  0  0  0  0  0  0
    7.7557   -2.0687   -0.7172 H   0  0  0  0  0  0  0  0  0  0  0  0
    4.0266   -0.9384   -1.1008 H   0  0  0  0  0  0  0  0  0  0  0  0
    7.1424   -1.5032    1.7864 H   0  0  0  0  0  0  0  0  0  0  0  0
    5.9648   -0.2619    3.9269 H   0  0  0  0  0  0  0  0  0  0  0  0
    3.8915    0.9346    4.6447 H   0  0  0  0  0  0  0  0  0  0  0  0
    2.0453    1.3082    3.0498 H   0  0  0  0  0  0  0  0  0  0  0  0
    0.9413    2.1758    1.0013 H   0  0  0  0  0  0  0  0  0  0  0  0
    0.2488    0.5890    1.5126 H   0  0  0  0  0  0  0  0  0  0  0  0
    0.4473    1.6839   -1.3616 H   0  0  0  0  0  0  0  0  0  0  0  0
    0.5870   -0.8520   -1.2431 H   0  0  0  0  0  0  0  0  0  0  0  0
   -0.8525   -0.2234   -2.0763 H   0  0  0  0  0  0  0  0  0  0  0  0
   -0.5790   -1.5022    0.5696 H   0  0  0  0  0  0  0  0  0  0  0  0
   -0.9534   -2.5566   -2.5222 H   0  0  0  0  0  0  0  0  0  0  0  0
   -0.4883   -3.4970   -1.0569 H   0  0  0  0  0  0  0  0  0  0  0  0
   -2.0105   -3.8816   -1.9441 H   0  0  0  0  0  0  0  0  0  0  0  0
   -3.7375   -0.5996   -0.8910 H   0  0  0  0  0  0  0  0  0  0  0  0
   -4.0301   -2.1345   -1.7902 H   0  0  0  0  0  0  0  0  0  0  0  0
   -2.8924   -0.9293   -2.4464 H   0  0  0  0  0  0  0  0  0  0  0  0
   -3.4753   -3.6183    0.0634 H   0  0  0  0  0  0  0  0  0  0  0  0
   -3.3069   -2.1725    1.1288 H   0  0  0  0  0  0  0  0  0  0  0  0
   -1.9823   -3.3885    1.0402 H   0  0  0  0  0  0  0  0  0  0  0  0
   -3.2885    2.3220    1.2433 H   0  0  0  0  0  0  0  0  0  0  0  0
   -5.5299    3.1051    1.8886 H   0  0  0  0  0  0  0  0  0  0  0  0
   -7.1155    3.9205    0.1679 H   0  0  0  0  0  0  0  0  0  0  0  0
   -6.4480    3.9510   -2.2182 H   0  0  0  0  0  0  0  0  0  0  0  0
   -4.2126    3.1747   -2.8945 H   0  0  0  0  0  0  0  0  0  0  0  0
  1  2  1  0
  2  3  2  0
  3  4  1  0
  4  5  2  0
  5  6  1  0
  5  7  1  0
  7  8  2  0
  8  9  1  0
  9 10  2  0
 10 11  1  0
 11 12  1  0
 12 13  1  0
 13 14  1  0
 14 15  1  0
 15 16  1  0
 16 17  1  0
 16 18  1  0
 16 19  1  0
 13 20  1  0
 20 21  1  0
 21 22  2  0
 21 23  1  0
 23 24  2  0
 24 25  1  0
 25 26  2  0
 26 27  1  0
 27 28  2  0
  6  2  1  0
 28 23  1  0
 10  4  1  0
  1 29  1  0
  1 30  1  0
  1 31  1  0
  3 32  1  0
  6 33  1  0
  7 34  1  0
  8 35  1  0
  9 36  1  0
 12 37  1  0
 12 38  1  0
 13 39  1  0
 14 40  1  0
 14 41  1  0
 15 42  1  0
 17 43  1  0
 17 44  1  0
 17 45  1  0
 18 46  1  0
 18 47  1  0
 18 48  1  0
 19 49  1  0
 19 50  1  0
 19 51  1  0
 24 52  1  0
 25 53  1  0
 26 54  1  0
 27 55  1  0
 28 56  1  0
M  END
$$$$
