
     RDKit          3D

 47 50  0  0  0  0  0  0  0  0999 V2000
    0.2276   -1.9248   -1.6445 C   0  0  1  0  0  0  0  0  0  0  0  0
    0.6006   -1.2664   -2.8231 O   0  0  0  0  0  0  0  0  0  0  0  0
    0.9904   -0.0833   -2.1816 C   0  0  2  0  0  0  0  0  0  0  0  0
    1.9908   -0.6135   -1.1903 C   0  0  0  0  0  0  0  0  0  0  0  0
    3.1634    0.1173   -0.6839 C   0  0  0  0  0  0  0  0  0  0  0  0
    4.1120   -0.4949   -0.1238 O   0  0  0  0  0  0  0  0  0  0  0  0
    3.2320    1.4997   -0.8784 O   0  0  0  0  0  0  0  0  0  0  0  0
    4.3277    2.2851   -0.4256 C   0  0  0  0  0  0  0  0  0  0  0  0
    1.4975   -1.8082   -0.8380 C   0  0  0  0  0  0  0  0  0  0  0  0
    1.9129   -2.7146    0.2465 C   0  0  0  0  0  0  0  0  0  0  0  0
    1.4704   -3.8953    0.2619 O   0  0  0  0  0  0  0  0  0  0  0  0
    2.7488   -2.2652    1.2715 O   0  0  0  0  0  0  0  0  0  0  0  0
    3.1541   -3.0965    2.3521 C   0  0  0  0  0  0  0  0  0  0  0  0
   -0.2603    0.2561   -1.4145 C   0  0  0  0  0  0  0  0  0  0  0  0
   -0.7625   -0.9390   -1.0743 C   0  0  0  0  0  0  0  0  0  0  0  0
   -1.9548   -1.2476   -0.2530 C   0  0  0  0  0  0  0  0  0  0  0  0
   -3.1035   -0.4392   -0.3179 C   0  0  0  0  0  0  0  0  0  0  0  0
   -4.2286   -0.7460    0.4529 C   0  0  0  0  0  0  0  0  0  0  0  0
   -4.2262   -1.8691    1.2852 C   0  0  0  0  0  0  0  0  0  0  0  0
   -5.3537   -2.1621    2.0490 O   0  0  0  0  0  0  0  0  0  0  0  0
   -3.0925   -2.6901    1.3402 C   0  0  0  0  0  0  0  0  0  0  0  0
   -1.9661   -2.3851    0.5705 C   0  0  0  0  0  0  0  0  0  0  0  0
   -0.5986    1.5899   -0.8758 C   0  0  0  0  0  0  0  0  0  0  0  0
   -0.5391    2.7114   -1.7170 C   0  0  0  0  0  0  0  0  0  0  0  0
   -0.8236    3.9855   -1.2165 C   0  0  0  0  0  0  0  0  0  0  0  0
   -1.1561    4.1530    0.1343 C   0  0  0  0  0  0  0  0  0  0  0  0
   -1.4424    5.4173    0.6441 O   0  0  0  0  0  0  0  0  0  0  0  0
   -1.1967    3.0413    0.9813 C   0  0  0  0  0  0  0  0  0  0  0  0
   -0.9119    1.7666    0.4832 C   0  0  0  0  0  0  0  0  0  0  0  0
   -0.1514   -2.9536   -1.8220 H   0  0  0  0  0  0  0  0  0  0  0  0
    1.3636    0.6910   -2.8846 H   0  0  0  0  0  0  0  0  0  0  0  0
    4.1492    3.3470   -0.6923 H   0  0  0  0  0  0  0  0  0  0  0  0
    4.4241    2.2023    0.6778 H   0  0  0  0  0  0  0  0  0  0  0  0
    5.2663    1.9444   -0.9116 H   0  0  0  0  0  0  0  0  0  0  0  0
    3.7168   -3.9731    1.9669 H   0  0  0  0  0  0  0  0  0  0  0  0
    3.8126   -2.5164    3.0306 H   0  0  0  0  0  0  0  0  0  0  0  0
    2.2646   -3.4410    2.9209 H   0  0  0  0  0  0  0  0  0  0  0  0
   -3.1366    0.4217   -0.9734 H   0  0  0  0  0  0  0  0  0  0  0  0
   -5.1055   -0.1135    0.3986 H   0  0  0  0  0  0  0  0  0  0  0  0
   -5.3835   -2.9693    2.6609 H   0  0  0  0  0  0  0  0  0  0  0  0
   -3.0832   -3.5647    1.9782 H   0  0  0  0  0  0  0  0  0  0  0  0
   -1.1005   -3.0309    0.6299 H   0  0  0  0  0  0  0  0  0  0  0  0
   -0.2839    2.5995   -2.7635 H   0  0  0  0  0  0  0  0  0  0  0  0
   -0.7838    4.8411   -1.8784 H   0  0  0  0  0  0  0  0  0  0  0  0
   -1.4200    6.2426    0.0564 H   0  0  0  0  0  0  0  0  0  0  0  0
   -1.4411    3.1663    2.0285 H   0  0  0  0  0  0  0  0  0  0  0  0
   -0.9194    0.9240    1.1626 H   0  0  0  0  0  0  0  0  0  0  0  0
  1  2  1  0
  2  3  1  0
  3  4  1  0
  4  5  1  0
  5  6  2  0
  5  7  1  0
  7  8  1  0
  4  9  2  0
  9 10  1  0
 10 11  2  0
 10 12  1  0
 12 13  1  0
  3 14  1  0
 14 15  2  0
 15 16  1  0
 16 17  2  0
 17 18  1  0
 18 19  2  0
 19 20  1  0
 19 21  1  0
 21 22  2  0
 14 23  1  0
 23 24  2  0
 24 25  1  0
 25 26  2  0
 26 27  1  0
 26 28  1  0
 28 29  2  0
  9  1  1  0
 22 16  1  0
 29 23  1  0
 15  1  1  0
  1 30  1  6
  3 31  1  6
  8 32  1  0
  8 33  1  0
  8 34  1  0
 13 35  1  0
 13 36  1  0
 13 37  1  0
 17 38  1  0
 18 39  1  0
 20 40  1  0
 21 41  1  0
 22 42  1  0
 24 43  1  0
 25 44  1  0
 27 45  1  0
 28 46  1  0
 29 47  1  0
M  END
$$$$
