
     RDKit          3D

 62 63  0  0  0  0  0  0  0  0999 V2000
   -3.0889    1.2180    0.3840 C   0  0  2  0  0  0  0  0  0  0  0  0
   -3.6309    2.6662    0.3862 C   0  0  0  0  0  0  0  0  0  0  0  0
   -4.0260    3.1901    1.7893 C   0  0  0  0  0  0  0  0  0  0  0  0
   -4.8341    4.4883    1.6532 C   0  0  0  0  0  0  0  0  0  0  0  0
   -2.8039    3.4363    2.6862 C   0  0  0  0  0  0  0  0  0  0  0  0
   -1.6967    1.1883    0.8753 N   0  0  0  0  0  0  0  0  0  0  0  0
   -1.2291   -0.1793    1.2094 C   0  0  1  0  0  0  0  0  0  0  0  0
    0.2039   -0.4029    0.7458 C   0  0  0  0  0  0  0  0  0  0  0  0
    1.2216    0.5130    1.0671 C   0  0  0  0  0  0  0  0  0  0  0  0
    2.5358    0.2907    0.6482 C   0  0  0  0  0  0  0  0  0  0  0  0
    2.8642   -0.8553   -0.0966 C   0  0  0  0  0  0  0  0  0  0  0  0
    1.8481   -1.7740   -0.4120 C   0  0  0  0  0  0  0  0  0  0  0  0
    0.5335   -1.5509    0.0059 C   0  0  0  0  0  0  0  0  0  0  0  0
    4.2613   -1.0921   -0.5419 C   0  0  0  0  0  0  0  0  0  0  0  0
    4.8197   -2.3823   -0.4894 C   0  0  0  0  0  0  0  0  0  0  0  0
    6.1349   -2.6037   -0.9080 C   0  0  0  0  0  0  0  0  0  0  0  0
    6.9100   -1.5425   -1.3911 C   0  0  0  0  0  0  0  0  0  0  0  0
    6.3640   -0.2541   -1.4395 C   0  0  0  0  0  0  0  0  0  0  0  0
    5.0495   -0.0296   -1.0205 C   0  0  0  0  0  0  0  0  0  0  0  0
    8.5721   -1.8202   -1.9023 S   0  0  0  0  0  6  0  0  0  0  0  0
    9.6356   -1.6159   -0.5552 N   0  0  0  0  0  0  0  0  0  0  0  0
    8.7117   -3.2153   -2.4440 O   0  0  0  0  0  0  0  0  0  0  0  0
    8.9413   -0.8449   -2.9848 O   0  0  0  0  0  0  0  0  0  0  0  0
   -1.3478   -0.4268    2.7242 C   0  0  0  0  0  0  0  0  0  0  0  0
   -0.6185    0.5100    3.4349 F   0  0  0  0  0  0  0  0  0  0  0  0
   -0.8765   -1.6908    3.0345 F   0  0  0  0  0  0  0  0  0  0  0  0
   -2.6715   -0.3474    3.1163 F   0  0  0  0  0  0  0  0  0  0  0  0
   -3.1685    0.6427   -1.0152 C   0  0  0  0  0  0  0  0  0  0  0  0
   -2.6037    1.2432   -1.9707 O   0  0  0  0  0  0  0  0  0  0  0  0
   -3.8582   -0.5922   -1.2516 N   0  0  0  0  0  0  0  0  0  0  0  0
   -3.8873   -1.2035   -2.5808 C   0  0  0  0  0  0  0  0  0  0  0  0
   -4.7017   -2.5008   -2.5880 C   0  0  0  0  0  0  0  0  0  0  0  0
   -6.1264   -2.2173   -2.4354 N   0  0  0  0  0  0  0  0  0  0  0  0
   -3.7396    0.6157    1.0549 H   0  0  0  0  0  0  0  0  0  0  0  0
   -2.8909    3.3523   -0.0830 H   0  0  0  0  0  0  0  0  0  0  0  0
   -4.5428    2.6900   -0.2528 H   0  0  0  0  0  0  0  0  0  0  0  0
   -4.6812    2.4408    2.2865 H   0  0  0  0  0  0  0  0  0  0  0  0
   -4.2261    5.2775    1.1605 H   0  0  0  0  0  0  0  0  0  0  0  0
   -5.1525    4.8521    2.6536 H   0  0  0  0  0  0  0  0  0  0  0  0
   -5.7502    4.3115    1.0501 H   0  0  0  0  0  0  0  0  0  0  0  0
   -2.0526    4.0681    2.1659 H   0  0  0  0  0  0  0  0  0  0  0  0
   -3.1085    3.9459    3.6253 H   0  0  0  0  0  0  0  0  0  0  0  0
   -2.3377    2.4763    2.9795 H   0  0  0  0  0  0  0  0  0  0  0  0
   -1.0819    1.6356    0.1538 H   0  0  0  0  0  0  0  0  0  0  0  0
   -1.8721   -0.9424    0.7142 H   0  0  0  0  0  0  0  0  0  0  0  0
    0.9980    1.4043    1.6394 H   0  0  0  0  0  0  0  0  0  0  0  0
    3.2992    1.0078    0.9226 H   0  0  0  0  0  0  0  0  0  0  0  0
    2.0665   -2.6584   -0.9972 H   0  0  0  0  0  0  0  0  0  0  0  0
   -0.2282   -2.2761   -0.2527 H   0  0  0  0  0  0  0  0  0  0  0  0
    4.2462   -3.2169   -0.1059 H   0  0  0  0  0  0  0  0  0  0  0  0
    6.5494   -3.6021   -0.8491 H   0  0  0  0  0  0  0  0  0  0  0  0
    6.9547    0.5776   -1.8019 H   0  0  0  0  0  0  0  0  0  0  0  0
    4.6446    0.9725   -1.0860 H   0  0  0  0  0  0  0  0  0  0  0  0
    9.3187   -2.2796    0.1867 H   0  0  0  0  0  0  0  0  0  0  0  0
    9.4766   -0.6522   -0.1847 H   0  0  0  0  0  0  0  0  0  0  0  0
   -4.3134   -1.0754   -0.4444 H   0  0  0  0  0  0  0  0  0  0  0  0
   -2.8460   -1.4326   -2.8951 H   0  0  0  0  0  0  0  0  0  0  0  0
   -4.3244   -0.4889   -3.3120 H   0  0  0  0  0  0  0  0  0  0  0  0
   -4.5378   -3.0127   -3.5616 H   0  0  0  0  0  0  0  0  0  0  0  0
   -4.3526   -3.1812   -1.7791 H   0  0  0  0  0  0  0  0  0  0  0  0
   -6.6463   -3.1111   -2.5914 H   0  0  0  0  0  0  0  0  0  0  0  0
   -6.3068   -1.9435   -1.4426 H   0  0  0  0  0  0  0  0  0  0  0  0
  1  2  1  0
  2  3  1  0
  3  4  1  0
  3  5  1  0
  1  6  1  0
  6  7  1  0
  7  8  1  0
  8  9  2  0
  9 10  1  0
 10 11  2  0
 11 12  1  0
 12 13  2  0
 11 14  1  0
 14 15  2  0
 15 16  1  0
 16 17  2  0
 17 18  1  0
 18 19  2  0
 17 20  1  0
 20 21  1  0
 20 22  2  0
 20 23  2  0
  7 24  1  0
 24 25  1  0
 24 26  1  0
 24 27  1  0
  1 28  1  0
 28 29  2  0
 28 30  1  0
 30 31  1  0
 31 32  1  0
 32 33  1  0
 13  8  1  0
 19 14  1  0
  1 34  1  1
  2 35  1  0
  2 36  1  0
  3 37  1  0
  4 38  1  0
  4 39  1  0
  4 40  1  0
  5 41  1  0
  5 42  1  0
  5 43  1  0
  6 44  1  0
  7 45  1  6
  9 46  1  0
 10 47  1  0
 12 48  1  0
 13 49  1  0
 15 50  1  0
 16 51  1  0
 18 52  1  0
 19 53  1  0
 21 54  1  0
 21 55  1  0
 30 56  1  0
 31 57  1  0
 31 58  1  0
 32 59  1  0
 32 60  1  0
 33 61  1  0
 33 62  1  0
M  END
$$$$
