
     RDKit          3D

 18 18  0  0  0  0  0  0  0  0999 V2000
    3.1387    0.6043    0.0382 O   0  0  0  0  0  0  0  0  0  0  0  0
    2.2322   -0.4360    0.2297 C   0  0  0  0  0  0  0  0  0  0  0  0
    2.6647   -1.5874    0.5061 O   0  0  0  0  0  0  0  0  0  0  0  0
    0.7756   -0.1986    0.1108 C   0  0  0  0  0  0  0  0  0  0  0  0
    0.3160    1.0025   -0.2821 C   0  0  0  0  0  0  0  0  0  0  0  0
   -1.1513    1.3116   -0.3831 C   0  0  0  0  0  0  0  0  0  0  0  0
   -2.0009    0.0376   -0.4294 C   0  0  0  0  0  0  0  0  0  0  0  0
   -1.5569   -0.9168    0.5915 N   0  0  0  0  0  0  0  0  0  0  0  0
   -0.1812   -1.3575    0.3205 C   0  0  0  0  0  0  0  0  0  0  0  0
    4.1362    0.4466    0.1183 H   0  0  0  0  0  0  0  0  0  0  0  0
    1.0037    1.8214   -0.4541 H   0  0  0  0  0  0  0  0  0  0  0  0
   -1.3393    1.9139   -1.2973 H   0  0  0  0  0  0  0  0  0  0  0  0
   -1.4447    1.9192    0.4997 H   0  0  0  0  0  0  0  0  0  0  0  0
   -1.9356   -0.4271   -1.4386 H   0  0  0  0  0  0  0  0  0  0  0  0
   -3.0660    0.2989   -0.2500 H   0  0  0  0  0  0  0  0  0  0  0  0
   -1.5847   -0.4512    1.5299 H   0  0  0  0  0  0  0  0  0  0  0  0
   -0.1717   -2.0025   -0.5848 H   0  0  0  0  0  0  0  0  0  0  0  0
    0.1652   -1.9789    1.1747 H   0  0  0  0  0  0  0  0  0  0  0  0
  1  2  1  0
  2  3  2  0
  2  4  1  0
  4  5  2  0
  5  6  1  0
  6  7  1  0
  7  8  1  0
  8  9  1  0
  9  4  1  0
  1 10  1  0
  5 11  1  0
  6 12  1  0
  6 13  1  0
  7 14  1  0
  7 15  1  0
  8 16  1  0
  9 17  1  0
  9 18  1  0
M  END
$$$$
