
     RDKit          3D

 36 36  0  0  0  0  0  0  0  0999 V2000
    5.7485    0.2303   -1.1827 C   0  0  0  0  0  0  0  0  0  0  0  0
    4.5336    0.6343   -0.3522 C   0  0  0  0  0  0  0  0  0  0  0  0
    3.3704   -0.3408   -0.5567 C   0  0  0  0  0  0  0  0  0  0  0  0
    2.2262    0.0635    0.2735 N   0  0  0  0  0  0  0  0  0  0  0  0
    1.1132   -0.9037    0.1818 C   0  0  0  0  0  0  0  0  0  0  0  0
    1.3577   -2.0991    1.1110 C   0  0  0  0  0  0  0  0  0  0  0  0
   -0.1863   -0.2450    0.5769 C   0  0  0  0  0  0  0  0  0  0  0  0
   -0.2178    0.5156    1.5834 O   0  0  0  0  0  0  0  0  0  0  0  0
   -1.3941   -0.5540   -0.1363 N   0  0  0  0  0  0  0  0  0  0  0  0
   -2.6356    0.1445    0.0691 C   0  0  0  0  0  0  0  0  0  0  0  0
   -2.6429    1.5437    0.2175 C   0  0  0  0  0  0  0  0  0  0  0  0
   -3.8455    2.2341    0.3803 C   0  0  0  0  0  0  0  0  0  0  0  0
   -5.0552    1.5404    0.3845 C   0  0  0  0  0  0  0  0  0  0  0  0
   -5.0673    0.1534    0.2253 C   0  0  0  0  0  0  0  0  0  0  0  0
   -3.8644   -0.5576    0.0716 C   0  0  0  0  0  0  0  0  0  0  0  0
   -3.9055   -2.0519   -0.0995 C   0  0  0  0  0  0  0  0  0  0  0  0
    6.5715    0.9566   -1.0148 H   0  0  0  0  0  0  0  0  0  0  0  0
    6.1008   -0.7804   -0.8853 H   0  0  0  0  0  0  0  0  0  0  0  0
    5.4928    0.2267   -2.2637 H   0  0  0  0  0  0  0  0  0  0  0  0
    4.2194    1.6587   -0.6485 H   0  0  0  0  0  0  0  0  0  0  0  0
    4.8180    0.6511    0.7224 H   0  0  0  0  0  0  0  0  0  0  0  0
    3.0801   -0.3482   -1.6321 H   0  0  0  0  0  0  0  0  0  0  0  0
    3.7143   -1.3580   -0.2734 H   0  0  0  0  0  0  0  0  0  0  0  0
    1.8968    0.9853   -0.1024 H   0  0  0  0  0  0  0  0  0  0  0  0
    1.0102   -1.2768   -0.8631 H   0  0  0  0  0  0  0  0  0  0  0  0
    2.2211   -2.7017    0.7638 H   0  0  0  0  0  0  0  0  0  0  0  0
    1.5557   -1.7510    2.1476 H   0  0  0  0  0  0  0  0  0  0  0  0
    0.4689   -2.7667    1.1199 H   0  0  0  0  0  0  0  0  0  0  0  0
   -1.3798   -1.3664   -0.7929 H   0  0  0  0  0  0  0  0  0  0  0  0
   -1.7185    2.1055    0.1826 H   0  0  0  0  0  0  0  0  0  0  0  0
   -3.8399    3.3107    0.4922 H   0  0  0  0  0  0  0  0  0  0  0  0
   -5.9863    2.0789    0.5049 H   0  0  0  0  0  0  0  0  0  0  0  0
   -6.0178   -0.3659    0.2241 H   0  0  0  0  0  0  0  0  0  0  0  0
   -3.1667   -2.5340    0.5752 H   0  0  0  0  0  0  0  0  0  0  0  0
   -3.6683   -2.3126   -1.1521 H   0  0  0  0  0  0  0  0  0  0  0  0
   -4.9076   -2.4625    0.1480 H   0  0  0  0  0  0  0  0  0  0  0  0
  1  2  1  0
  2  3  1  0
  3  4  1  0
  4  5  1  0
  5  6  1  0
  5  7  1  0
  7  8  2  0
  7  9  1  0
  9 10  1  0
 10 11  2  0
 11 12  1  0
 12 13  2  0
 13 14  1  0
 14 15  2  0
 15 16  1  0
 15 10  1  0
  1 17  1  0
  1 18  1  0
  1 19  1  0
  2 20  1  0
  2 21  1  0
  3 22  1  0
  3 23  1  0
  4 24  1  0
  5 25  1  0
  6 26  1  0
  6 27  1  0
  6 28  1  0
  9 29  1  0
 11 30  1  0
 12 31  1  0
 13 32  1  0
 14 33  1  0
 16 34  1  0
 16 35  1  0
 16 36  1  0
M  END
$$$$
