
     RDKit          3D

 65 67  0  0  0  0  0  0  0  0999 V2000
    3.0724   -0.3545    0.1920 C   0  0  2  0  0  0  0  0  0  0  0  0
    1.7654   -0.2209   -0.3479 O   0  0  0  0  0  0  0  0  0  0  0  0
    1.1700   -1.4686   -0.6736 C   0  0  2  0  0  0  0  0  0  0  0  0
    1.6429   -1.9317   -2.0857 C   0  0  1  0  0  0  0  0  0  0  0  0
    2.9503   -2.4445   -2.0183 O   0  0  0  0  0  0  0  0  0  0  0  0
    0.6957   -2.9738   -2.7619 C   0  0  2  0  0  0  0  0  0  0  0  0
   -0.0608   -2.3884   -3.8743 N   0  0  0  0  0  0  0  0  0  0  0  0
   -0.2586   -3.6276   -1.7512 C   0  0  0  0  0  0  0  0  0  0  0  0
   -1.1199   -2.6026   -0.9740 C   0  0  2  0  0  0  0  0  0  0  0  0
   -2.3449   -2.3068   -1.7218 N   0  0  0  0  0  0  0  0  0  0  0  0
   -0.3600   -1.2807   -0.6476 C   0  0  1  0  0  0  0  0  0  0  0  0
   -0.7268   -0.8463    0.6562 O   0  0  0  0  0  0  0  0  0  0  0  0
   -1.7001    0.1901    0.6691 C   0  0  1  0  0  0  0  0  0  0  0  0
   -2.8260   -0.2663    1.3951 O   0  0  0  0  0  0  0  0  0  0  0  0
   -3.9396    0.6231    1.3014 C   0  0  2  0  0  0  0  0  0  0  0  0
   -4.9151    0.1471    0.2129 C   0  0  0  0  0  0  0  0  0  0  0  0
   -5.3103   -1.2382    0.4511 N   0  0  0  0  0  0  0  0  0  0  0  0
   -3.5614    2.1200    1.1017 C   0  0  1  0  0  0  0  0  0  0  0  0
   -4.5868    2.9323    1.6162 O   0  0  0  0  0  0  0  0  0  0  0  0
   -2.2380    2.4170    1.8225 C   0  0  2  0  0  0  0  0  0  0  0  0
   -1.8584    3.7459    1.5713 O   0  0  0  0  0  0  0  0  0  0  0  0
   -1.1109    1.4445    1.3678 C   0  0  1  0  0  0  0  0  0  0  0  0
   -0.3023    1.0592    2.5308 N   0  0  0  0  0  0  0  0  0  0  0  0
    3.0977    0.2778    1.4543 O   0  0  0  0  0  0  0  0  0  0  0  0
    3.8207    1.4845    1.3278 C   0  0  2  0  0  0  0  0  0  0  0  0
    3.0408    2.6361    1.9747 C   0  0  0  0  0  0  0  0  0  0  0  0
    2.8385    2.3843    3.3389 O   0  0  0  0  0  0  0  0  0  0  0  0
    4.0908    1.7431   -0.1492 C   0  0  1  0  0  0  0  0  0  0  0  0
    5.3307    2.3760   -0.3343 O   0  0  0  0  0  0  0  0  0  0  0  0
    4.0654    0.3534   -0.7258 C   0  0  1  0  0  0  0  0  0  0  0  0
    5.3346   -0.2436   -0.6259 O   0  0  0  0  0  0  0  0  0  0  0  0
    3.3963   -1.4115    0.3367 H   0  0  0  0  0  0  0  0  0  0  0  0
    1.4023   -2.2479    0.0915 H   0  0  0  0  0  0  0  0  0  0  0  0
    1.6895   -1.0278   -2.7326 H   0  0  0  0  0  0  0  0  0  0  0  0
    2.9232   -3.2545   -1.4442 H   0  0  0  0  0  0  0  0  0  0  0  0
    1.3141   -3.7968   -3.1879 H   0  0  0  0  0  0  0  0  0  0  0  0
    0.6107   -2.1448   -4.6386 H   0  0  0  0  0  0  0  0  0  0  0  0
   -0.5133   -1.4966   -3.5721 H   0  0  0  0  0  0  0  0  0  0  0  0
    0.3513   -4.2060   -1.0220 H   0  0  0  0  0  0  0  0  0  0  0  0
   -0.9033   -4.3698   -2.2711 H   0  0  0  0  0  0  0  0  0  0  0  0
   -1.4082   -3.0924   -0.0145 H   0  0  0  0  0  0  0  0  0  0  0  0
   -2.8872   -3.1937   -1.8386 H   0  0  0  0  0  0  0  0  0  0  0  0
   -2.9476   -1.6901   -1.1336 H   0  0  0  0  0  0  0  0  0  0  0  0
   -0.5696   -0.5237   -1.4392 H   0  0  0  0  0  0  0  0  0  0  0  0
   -2.0277    0.4888   -0.3554 H   0  0  0  0  0  0  0  0  0  0  0  0
   -4.4750    0.5511    2.2743 H   0  0  0  0  0  0  0  0  0  0  0  0
   -5.8189    0.7972    0.2060 H   0  0  0  0  0  0  0  0  0  0  0  0
   -4.4312    0.2235   -0.7848 H   0  0  0  0  0  0  0  0  0  0  0  0
   -5.9031   -1.5432   -0.3545 H   0  0  0  0  0  0  0  0  0  0  0  0
   -5.9239   -1.2625    1.2980 H   0  0  0  0  0  0  0  0  0  0  0  0
   -3.4291    2.3300    0.0126 H   0  0  0  0  0  0  0  0  0  0  0  0
   -4.4933    3.8234    1.1887 H   0  0  0  0  0  0  0  0  0  0  0  0
   -2.4297    2.2881    2.9154 H   0  0  0  0  0  0  0  0  0  0  0  0
   -1.1800    3.9844    2.2556 H   0  0  0  0  0  0  0  0  0  0  0  0
   -0.4543    1.9593    0.6282 H   0  0  0  0  0  0  0  0  0  0  0  0
    0.5620    0.5777    2.1953 H   0  0  0  0  0  0  0  0  0  0  0  0
    0.0345    1.9281    3.0054 H   0  0  0  0  0  0  0  0  0  0  0  0
    4.7890    1.3625    1.8643 H   0  0  0  0  0  0  0  0  0  0  0  0
    3.5903    3.5957    1.8387 H   0  0  0  0  0  0  0  0  0  0  0  0
    2.0495    2.7388    1.4837 H   0  0  0  0  0  0  0  0  0  0  0  0
    3.7031    2.5644    3.7925 H   0  0  0  0  0  0  0  0  0  0  0  0
    3.2695    2.3490   -0.6024 H   0  0  0  0  0  0  0  0  0  0  0  0
    5.3733    2.6333   -1.2921 H   0  0  0  0  0  0  0  0  0  0  0  0
    3.7252    0.3739   -1.7878 H   0  0  0  0  0  0  0  0  0  0  0  0
    5.3152   -1.0477   -1.2076 H   0  0  0  0  0  0  0  0  0  0  0  0
  1  2  1  0
  2  3  1  0
  3  4  1  0
  4  5  1  0
  4  6  1  0
  6  7  1  0
  6  8  1  0
  8  9  1  0
  9 10  1  0
  9 11  1  0
 11 12  1  0
 12 13  1  0
 13 14  1  0
 14 15  1  0
 15 16  1  0
 16 17  1  0
 15 18  1  0
 18 19  1  0
 18 20  1  0
 20 21  1  0
 20 22  1  0
 22 23  1  0
  1 24  1  0
 24 25  1  0
 25 26  1  0
 26 27  1  0
 25 28  1  0
 28 29  1  0
 28 30  1  0
 30 31  1  0
 30  1  1  0
 11  3  1  0
 22 13  1  0
  1 32  1  1
  3 33  1  1
  4 34  1  6
  5 35  1  0
  6 36  1  6
  7 37  1  0
  7 38  1  0
  8 39  1  0
  8 40  1  0
  9 41  1  1
 10 42  1  0
 10 43  1  0
 11 44  1  6
 13 45  1  6
 15 46  1  1
 16 47  1  0
 16 48  1  0
 17 49  1  0
 17 50  1  0
 18 51  1  6
 19 52  1  0
 20 53  1  1
 21 54  1  0
 22 55  1  6
 23 56  1  0
 23 57  1  0
 25 58  1  1
 26 59  1  0
 26 60  1  0
 27 61  1  0
 28 62  1  6
 29 63  1  0
 30 64  1  6
 31 65  1  0
M  END
$$$$
