
     RDKit          3D

 47 50  0  0  0  0  0  0  0  0999 V2000
   -3.5170    3.0601   -1.5007 C   0  0  0  0  0  0  0  0  0  0  0  0
   -4.1932    1.8586   -1.1439 O   0  0  0  0  0  0  0  0  0  0  0  0
   -3.5596    0.6905   -0.6884 C   0  0  0  0  0  0  0  0  0  0  0  0
   -2.1625    0.6085   -0.5584 C   0  0  0  0  0  0  0  0  0  0  0  0
   -1.5573   -0.5629   -0.0871 C   0  0  0  0  0  0  0  0  0  0  0  0
   -0.1284   -0.6676    0.0339 N   0  0  0  0  0  0  0  0  0  0  0  0
    0.7227    0.4016    0.4706 C   0  0  0  0  0  0  0  0  0  0  0  0
    0.1934    1.5203    1.0661 N   0  0  0  0  0  0  0  0  0  0  0  0
    0.9876    2.5330    1.5186 C   0  0  0  0  0  0  0  0  0  0  0  0
    2.3583    2.3979    1.3623 C   0  0  0  0  0  0  0  0  0  0  0  0
    3.4127    3.1932    1.7496 C   0  0  0  0  0  0  0  0  0  0  0  0
    4.5531    2.4925    1.3619 C   0  0  0  0  0  0  0  0  0  0  0  0
    4.2212    1.3259    0.7516 N   0  0  0  0  0  0  0  0  0  0  0  0
    2.8731    1.2865    0.7687 C   0  0  0  0  0  0  0  0  0  0  0  0
    2.0781    0.2758    0.3379 N   0  0  0  0  0  0  0  0  0  0  0  0
    5.1509    0.3443    0.2574 C   0  0  0  0  0  0  0  0  0  0  0  0
    4.8129   -0.5242   -0.7957 C   0  0  0  0  0  0  0  0  0  0  0  0
    5.7518   -1.4534   -1.2487 C   0  0  0  0  0  0  0  0  0  0  0  0
    7.0164   -1.5078   -0.6625 C   0  0  0  0  0  0  0  0  0  0  0  0
    7.3274   -0.6216    0.3694 C   0  0  0  0  0  0  0  0  0  0  0  0
    6.4005    0.2757    0.7986 N   0  0  0  0  0  0  0  0  0  0  0  0
   -2.3534   -1.6723    0.2116 C   0  0  0  0  0  0  0  0  0  0  0  0
   -3.7555   -1.6163    0.0880 C   0  0  0  0  0  0  0  0  0  0  0  0
   -4.5502   -2.7300    0.4032 O   0  0  0  0  0  0  0  0  0  0  0  0
   -4.0558   -3.9839    0.8634 C   0  0  0  0  0  0  0  0  0  0  0  0
   -4.3627   -0.4153   -0.3626 C   0  0  0  0  0  0  0  0  0  0  0  0
   -5.7534   -0.2517   -0.5142 O   0  0  0  0  0  0  0  0  0  0  0  0
   -6.7575   -1.2229   -0.2415 C   0  0  0  0  0  0  0  0  0  0  0  0
   -2.8284    2.8727   -2.3515 H   0  0  0  0  0  0  0  0  0  0  0  0
   -4.2649    3.8184   -1.8105 H   0  0  0  0  0  0  0  0  0  0  0  0
   -2.9518    3.4537   -0.6294 H   0  0  0  0  0  0  0  0  0  0  0  0
   -1.5414    1.4445   -0.8460 H   0  0  0  0  0  0  0  0  0  0  0  0
    0.3138   -1.6010   -0.1276 H   0  0  0  0  0  0  0  0  0  0  0  0
    0.5561    3.4032    1.9951 H   0  0  0  0  0  0  0  0  0  0  0  0
    3.3683    4.1440    2.2639 H   0  0  0  0  0  0  0  0  0  0  0  0
    5.5699    2.8270    1.5240 H   0  0  0  0  0  0  0  0  0  0  0  0
    3.8510   -0.4708   -1.2850 H   0  0  0  0  0  0  0  0  0  0  0  0
    5.5019   -2.1250   -2.0600 H   0  0  0  0  0  0  0  0  0  0  0  0
    7.7504   -2.2234   -1.0095 H   0  0  0  0  0  0  0  0  0  0  0  0
    8.3064   -0.6454    0.8290 H   0  0  0  0  0  0  0  0  0  0  0  0
   -1.8668   -2.5758    0.5530 H   0  0  0  0  0  0  0  0  0  0  0  0
   -3.3844   -4.4331    0.1014 H   0  0  0  0  0  0  0  0  0  0  0  0
   -3.5144   -3.8522    1.8240 H   0  0  0  0  0  0  0  0  0  0  0  0
   -4.9110   -4.6702    1.0303 H   0  0  0  0  0  0  0  0  0  0  0  0
   -7.7515   -0.7796   -0.4550 H   0  0  0  0  0  0  0  0  0  0  0  0
   -6.6255   -2.1080   -0.8986 H   0  0  0  0  0  0  0  0  0  0  0  0
   -6.7312   -1.5135    0.8298 H   0  0  0  0  0  0  0  0  0  0  0  0
  1  2  1  0
  2  3  1  0
  3  4  2  0
  4  5  1  0
  5  6  1  0
  6  7  1  0
  7  8  2  0
  8  9  1  0
  9 10  2  0
 10 11  1  0
 11 12  2  0
 12 13  1  0
 13 14  1  0
 14 15  2  0
 13 16  1  0
 16 17  2  0
 17 18  1  0
 18 19  2  0
 19 20  1  0
 20 21  2  0
  5 22  2  0
 22 23  1  0
 23 24  1  0
 24 25  1  0
 23 26  2  0
 26 27  1  0
 27 28  1  0
 26  3  1  0
 15  7  1  0
 21 16  1  0
 14 10  1  0
  1 29  1  0
  1 30  1  0
  1 31  1  0
  4 32  1  0
  6 33  1  0
  9 34  1  0
 11 35  1  0
 12 36  1  0
 17 37  1  0
 18 38  1  0
 19 39  1  0
 20 40  1  0
 22 41  1  0
 25 42  1  0
 25 43  1  0
 25 44  1  0
 28 45  1  0
 28 46  1  0
 28 47  1  0
M  END
$$$$
