
     RDKit          3D

 63 67  0  0  0  0  0  0  0  0999 V2000
   -4.9575   -3.1835   -3.5902 F   0  0  0  0  0  0  0  0  0  0  0  0
   -4.6334   -2.2342   -2.6781 C   0  0  0  0  0  0  0  0  0  0  0  0
   -4.7443   -2.5095   -1.3135 C   0  0  0  0  0  0  0  0  0  0  0  0
   -4.4117   -1.5326   -0.3704 C   0  0  0  0  0  0  0  0  0  0  0  0
   -3.9522   -0.2662   -0.7852 C   0  0  0  0  0  0  0  0  0  0  0  0
   -3.8584    0.0014   -2.1639 C   0  0  0  0  0  0  0  0  0  0  0  0
   -4.1925   -0.9790   -3.1025 C   0  0  0  0  0  0  0  0  0  0  0  0
   -3.6068    0.8273    0.2130 C   0  0  0  0  0  0  0  0  0  0  0  0
   -2.7070    0.3506    1.3829 C   0  0  0  0  0  0  0  0  0  0  0  0
   -1.3959   -0.3277    0.9391 C   0  0  0  0  0  0  0  0  0  0  0  0
   -0.4527    0.6171    0.1791 C   0  0  0  0  0  0  0  0  0  0  0  0
    0.8622   -0.0295   -0.0194 N   0  0  0  0  0  0  0  0  0  0  0  0
    1.7730    0.2359    1.1123 C   0  0  0  0  0  0  0  0  0  0  0  0
    2.9765   -0.7175    1.0498 C   0  0  0  0  0  0  0  0  0  0  0  0
    3.3563   -1.0767   -0.4056 C   0  0  0  0  0  0  0  0  0  0  0  0
    2.9755    0.0342   -1.3999 C   0  0  0  0  0  0  0  0  0  0  0  0
    1.4777    0.4042   -1.2968 C   0  0  0  0  0  0  0  0  0  0  0  0
    4.7811   -1.4330   -0.5226 N   0  0  0  0  0  0  0  0  0  0  0  0
    5.2831   -2.6245   -0.9444 C   0  0  0  0  0  0  0  0  0  0  0  0
    4.5649   -3.6057   -1.2758 O   0  0  0  0  0  0  0  0  0  0  0  0
    6.6346   -2.6614   -0.9805 N   0  0  0  0  0  0  0  0  0  0  0  0
    7.0007   -1.4381   -0.5664 C   0  0  0  0  0  0  0  0  0  0  0  0
    8.2922   -0.9374   -0.4206 C   0  0  0  0  0  0  0  0  0  0  0  0
    8.4322    0.3866    0.0312 C   0  0  0  0  0  0  0  0  0  0  0  0
    7.2920    1.1670    0.3232 C   0  0  0  0  0  0  0  0  0  0  0  0
    5.9995    0.6329    0.1654 C   0  0  0  0  0  0  0  0  0  0  0  0
    5.8879   -0.6872   -0.2878 C   0  0  0  0  0  0  0  0  0  0  0  0
   -4.8732    1.5085    0.7063 C   0  0  0  0  0  0  0  0  0  0  0  0
   -5.2109    2.7872    0.2219 C   0  0  0  0  0  0  0  0  0  0  0  0
   -6.3845    3.4200    0.6421 C   0  0  0  0  0  0  0  0  0  0  0  0
   -7.2403    2.7831    1.5430 C   0  0  0  0  0  0  0  0  0  0  0  0
   -8.3787    3.3982    1.9480 F   0  0  0  0  0  0  0  0  0  0  0  0
   -6.9254    1.5100    2.0222 C   0  0  0  0  0  0  0  0  0  0  0  0
   -5.7531    0.8722    1.6055 C   0  0  0  0  0  0  0  0  0  0  0  0
   -5.0897   -3.4810   -0.9841 H   0  0  0  0  0  0  0  0  0  0  0  0
   -4.5071   -1.7750    0.6781 H   0  0  0  0  0  0  0  0  0  0  0  0
   -3.5260    0.9706   -2.5146 H   0  0  0  0  0  0  0  0  0  0  0  0
   -4.1115   -0.7628   -4.1600 H   0  0  0  0  0  0  0  0  0  0  0  0
   -3.0079    1.5992   -0.3174 H   0  0  0  0  0  0  0  0  0  0  0  0
   -2.4569    1.2249    2.0235 H   0  0  0  0  0  0  0  0  0  0  0  0
   -3.2543   -0.3652    2.0297 H   0  0  0  0  0  0  0  0  0  0  0  0
   -0.8882   -0.7022    1.8527 H   0  0  0  0  0  0  0  0  0  0  0  0
   -1.6155   -1.2151    0.3078 H   0  0  0  0  0  0  0  0  0  0  0  0
   -0.3469    1.5842    0.7221 H   0  0  0  0  0  0  0  0  0  0  0  0
   -0.9245    0.8389   -0.8042 H   0  0  0  0  0  0  0  0  0  0  0  0
    2.1291    1.2917    1.0836 H   0  0  0  0  0  0  0  0  0  0  0  0
    1.2591    0.0863    2.0864 H   0  0  0  0  0  0  0  0  0  0  0  0
    2.7246   -1.6572    1.5889 H   0  0  0  0  0  0  0  0  0  0  0  0
    3.8238   -0.2577    1.5973 H   0  0  0  0  0  0  0  0  0  0  0  0
    2.7423   -1.9630   -0.6859 H   0  0  0  0  0  0  0  0  0  0  0  0
    3.5783    0.9439   -1.2072 H   0  0  0  0  0  0  0  0  0  0  0  0
    3.2067   -0.2988   -2.4353 H   0  0  0  0  0  0  0  0  0  0  0  0
    0.9351   -0.0895   -2.1327 H   0  0  0  0  0  0  0  0  0  0  0  0
    1.3731    1.5056   -1.4313 H   0  0  0  0  0  0  0  0  0  0  0  0
    7.2495   -3.4554   -1.2675 H   0  0  0  0  0  0  0  0  0  0  0  0
    9.1586   -1.5452   -0.6468 H   0  0  0  0  0  0  0  0  0  0  0  0
    9.4203    0.8097    0.1570 H   0  0  0  0  0  0  0  0  0  0  0  0
    7.4130    2.1839    0.6731 H   0  0  0  0  0  0  0  0  0  0  0  0
    5.1363    1.2376    0.4009 H   0  0  0  0  0  0  0  0  0  0  0  0
   -4.5675    3.2971   -0.4843 H   0  0  0  0  0  0  0  0  0  0  0  0
   -6.6309    4.4043    0.2652 H   0  0  0  0  0  0  0  0  0  0  0  0
   -7.5917    1.0133    2.7159 H   0  0  0  0  0  0  0  0  0  0  0  0
   -5.5420   -0.1158    1.9878 H   0  0  0  0  0  0  0  0  0  0  0  0
  1  2  1  0
  2  3  2  0
  3  4  1  0
  4  5  2  0
  5  6  1  0
  6  7  2  0
  5  8  1  0
  8  9  1  0
  9 10  1  0
 10 11  1  0
 11 12  1  0
 12 13  1  0
 13 14  1  0
 14 15  1  0
 15 16  1  0
 16 17  1  0
 15 18  1  0
 18 19  1  0
 19 20  2  0
 19 21  1  0
 21 22  1  0
 22 23  2  0
 23 24  1  0
 24 25  2  0
 25 26  1  0
 26 27  2  0
  8 28  1  0
 28 29  2  0
 29 30  1  0
 30 31  2  0
 31 32  1  0
 31 33  1  0
 33 34  2  0
  7  2  1  0
 17 12  1  0
 27 18  1  0
 34 28  1  0
 27 22  1  0
  3 35  1  0
  4 36  1  0
  6 37  1  0
  7 38  1  0
  8 39  1  0
  9 40  1  0
  9 41  1  0
 10 42  1  0
 10 43  1  0
 11 44  1  0
 11 45  1  0
 13 46  1  0
 13 47  1  0
 14 48  1  0
 14 49  1  0
 15 50  1  0
 16 51  1  0
 16 52  1  0
 17 53  1  0
 17 54  1  0
 21 55  1  0
 23 56  1  0
 24 57  1  0
 25 58  1  0
 26 59  1  0
 29 60  1  0
 30 61  1  0
 33 62  1  0
 34 63  1  0
M  END
$$$$
