
     RDKit          3D

 57 60  0  0  0  0  0  0  0  0999 V2000
    0.6278    0.9814    0.0214 C   0  0  2  0  0  0  0  0  0  0  0  0
    1.4226    2.1500   -0.5430 C   0  0  0  0  0  0  0  0  0  0  0  0
    2.8778    1.8781   -0.0939 C   0  0  1  0  0  0  0  0  0  0  0  0
    3.4360    3.0162    0.7755 C   0  0  0  0  0  0  0  0  0  0  0  0
    2.8840    0.4703    0.6181 C   0  0  2  0  0  0  0  0  0  0  0  0
    2.7083    0.6882    2.0062 O   0  0  0  0  0  0  0  0  0  0  0  0
    4.2055   -0.2913    0.3767 C   0  0  0  0  0  0  0  0  0  0  0  0
    5.0934    0.2208   -0.2902 O   0  0  0  0  0  0  0  0  0  0  0  0
    4.4877   -1.6455    0.9788 C   0  0  0  0  0  0  0  0  0  0  0  0
    4.7979   -2.5674   -0.0305 O   0  0  0  0  0  0  0  0  0  0  0  0
    1.6067   -0.2082   -0.0043 C   0  0  2  0  0  0  0  0  0  0  0  0
    1.9436   -0.6995   -1.4583 C   0  0  0  0  0  0  0  0  0  0  0  0
    0.9635   -1.3624    0.8220 C   0  0  0  0  0  0  0  0  0  0  0  0
   -0.4815   -1.7283    0.3777 C   0  0  2  0  0  0  0  0  0  0  0  0
   -0.4552   -2.5490   -0.7619 O   0  0  0  0  0  0  0  0  0  0  0  0
   -1.4383   -0.4794    0.2661 C   0  0  1  0  0  0  0  0  0  0  0  0
   -1.5687   -0.0079    1.5702 F   0  0  0  0  0  0  0  0  0  0  0  0
   -0.7769    0.6797   -0.5676 C   0  0  1  0  0  0  0  0  0  0  0  0
   -1.6545    1.9531   -0.5267 C   0  0  0  0  0  0  0  0  0  0  0  0
   -3.0754    1.6823   -1.0176 C   0  0  0  0  0  0  0  0  0  0  0  0
   -3.6786    0.5399   -0.2402 C   0  0  0  0  0  0  0  0  0  0  0  0
   -4.8552    0.7125    0.3834 C   0  0  0  0  0  0  0  0  0  0  0  0
   -5.4415   -0.3572    1.1897 C   0  0  0  0  0  0  0  0  0  0  0  0
   -6.5551   -0.1891    1.7528 O   0  0  0  0  0  0  0  0  0  0  0  0
   -4.7190   -1.6160    1.3516 C   0  0  0  0  0  0  0  0  0  0  0  0
   -3.5528   -1.8123    0.7355 C   0  0  0  0  0  0  0  0  0  0  0  0
   -2.9162   -0.7956   -0.2149 C   0  0  2  0  0  0  0  0  0  0  0  0
   -3.0172   -1.4039   -1.6354 C   0  0  0  0  0  0  0  0  0  0  0  0
    0.4478    1.2541    1.0894 H   0  0  0  0  0  0  0  0  0  0  0  0
    1.3541    2.1559   -1.6535 H   0  0  0  0  0  0  0  0  0  0  0  0
    1.0302    3.1173   -0.1576 H   0  0  0  0  0  0  0  0  0  0  0  0
    3.4947    1.8565   -1.0192 H   0  0  0  0  0  0  0  0  0  0  0  0
    2.7866    3.2004    1.6580 H   0  0  0  0  0  0  0  0  0  0  0  0
    4.4595    2.7617    1.1233 H   0  0  0  0  0  0  0  0  0  0  0  0
    3.4912    3.9523    0.1800 H   0  0  0  0  0  0  0  0  0  0  0  0
    2.8660   -0.1541    2.5007 H   0  0  0  0  0  0  0  0  0  0  0  0
    5.3683   -1.5511    1.6483 H   0  0  0  0  0  0  0  0  0  0  0  0
    3.6536   -2.0200    1.6065 H   0  0  0  0  0  0  0  0  0  0  0  0
    3.9406   -2.9701   -0.3252 H   0  0  0  0  0  0  0  0  0  0  0  0
    1.1177   -0.5827   -2.1765 H   0  0  0  0  0  0  0  0  0  0  0  0
    2.2461   -1.7662   -1.4570 H   0  0  0  0  0  0  0  0  0  0  0  0
    2.7802   -0.1353   -1.9162 H   0  0  0  0  0  0  0  0  0  0  0  0
    1.5893   -2.2764    0.7664 H   0  0  0  0  0  0  0  0  0  0  0  0
    0.9078   -1.0764    1.8932 H   0  0  0  0  0  0  0  0  0  0  0  0
   -0.8752   -2.3661    1.1973 H   0  0  0  0  0  0  0  0  0  0  0  0
   -0.4036   -1.9746   -1.5615 H   0  0  0  0  0  0  0  0  0  0  0  0
   -0.6889    0.3916   -1.6301 H   0  0  0  0  0  0  0  0  0  0  0  0
   -1.2103    2.7366   -1.1776 H   0  0  0  0  0  0  0  0  0  0  0  0
   -1.6983    2.3589    0.5085 H   0  0  0  0  0  0  0  0  0  0  0  0
   -3.6710    2.6155   -0.9086 H   0  0  0  0  0  0  0  0  0  0  0  0
   -3.0583    1.4298   -2.0989 H   0  0  0  0  0  0  0  0  0  0  0  0
   -5.3790    1.6593    0.3221 H   0  0  0  0  0  0  0  0  0  0  0  0
   -5.1361   -2.3977    1.9745 H   0  0  0  0  0  0  0  0  0  0  0  0
   -3.0827   -2.7796    0.8576 H   0  0  0  0  0  0  0  0  0  0  0  0
   -4.0723   -1.3759   -1.9860 H   0  0  0  0  0  0  0  0  0  0  0  0
   -2.7190   -2.4722   -1.6535 H   0  0  0  0  0  0  0  0  0  0  0  0
   -2.4075   -0.8508   -2.3763 H   0  0  0  0  0  0  0  0  0  0  0  0
  1  2  1  0
  2  3  1  0
  3  4  1  0
  3  5  1  0
  5  6  1  1
  5  7  1  0
  7  8  2  0
  7  9  1  0
  9 10  1  0
  5 11  1  0
 11 12  1  6
 11 13  1  0
 13 14  1  0
 14 15  1  0
 14 16  1  0
 16 17  1  1
 16 18  1  0
 18 19  1  0
 19 20  1  0
 20 21  1  0
 21 22  2  0
 22 23  1  0
 23 24  2  0
 23 25  1  0
 25 26  2  0
 26 27  1  0
 27 28  1  6
 11  1  1  0
 27 16  1  0
 18  1  1  0
 27 21  1  0
  1 29  1  1
  2 30  1  0
  2 31  1  0
  3 32  1  6
  4 33  1  0
  4 34  1  0
  4 35  1  0
  6 36  1  0
  9 37  1  0
  9 38  1  0
 10 39  1  0
 12 40  1  0
 12 41  1  0
 12 42  1  0
 13 43  1  0
 13 44  1  0
 14 45  1  1
 15 46  1  0
 18 47  1  6
 19 48  1  0
 19 49  1  0
 20 50  1  0
 20 51  1  0
 22 52  1  0
 25 53  1  0
 26 54  1  0
 28 55  1  0
 28 56  1  0
 28 57  1  0
M  END
$$$$
