
     RDKit          3D

 41 44  0  0  0  0  0  0  0  0999 V2000
   -5.2032   -1.2243    0.7198 O   0  0  0  0  0  0  0  0  0  0  0  0
   -4.5713   -0.0133    0.9834 C   0  0  0  0  0  0  0  0  0  0  0  0
   -4.2533    0.2881    2.1647 O   0  0  0  0  0  0  0  0  0  0  0  0
   -4.2270    0.9085   -0.1415 C   0  0  0  0  0  0  0  0  0  0  0  0
   -2.8214    0.7514   -0.5030 N   0  0  0  0  0  0  0  0  0  0  0  0
   -2.3286   -0.4245   -1.1615 C   0  0  0  0  0  0  0  0  0  0  0  0
   -3.1756   -1.2047   -1.8982 N   0  0  0  0  0  0  0  0  0  0  0  0
   -2.7255   -2.2808   -2.6139 C   0  0  0  0  0  0  0  0  0  0  0  0
   -1.3986   -2.5974   -2.6242 N   0  0  0  0  0  0  0  0  0  0  0  0
   -0.5487   -1.8411   -1.8902 C   0  0  0  0  0  0  0  0  0  0  0  0
   -0.9746   -0.7818   -1.1407 C   0  0  0  0  0  0  0  0  0  0  0  0
    0.1559   -0.2832   -0.5101 C   0  0  0  0  0  0  0  0  0  0  0  0
    1.2072   -1.0961   -0.9618 C   0  0  0  0  0  0  0  0  0  0  0  0
    0.7446   -2.0138   -1.7918 O   0  0  0  0  0  0  0  0  0  0  0  0
    2.6371   -1.0070   -0.5956 C   0  0  0  0  0  0  0  0  0  0  0  0
    3.6142   -1.3133   -1.5572 C   0  0  0  0  0  0  0  0  0  0  0  0
    4.9724   -1.2462   -1.2315 C   0  0  0  0  0  0  0  0  0  0  0  0
    5.3661   -0.8870    0.0598 C   0  0  0  0  0  0  0  0  0  0  0  0
    4.4018   -0.6032    1.0298 C   0  0  0  0  0  0  0  0  0  0  0  0
    3.0426   -0.6694    0.7085 C   0  0  0  0  0  0  0  0  0  0  0  0
    0.2397    0.8415    0.4393 C   0  0  0  0  0  0  0  0  0  0  0  0
   -0.5006    0.8154    1.6323 C   0  0  0  0  0  0  0  0  0  0  0  0
   -0.4060    1.8738    2.5407 C   0  0  0  0  0  0  0  0  0  0  0  0
    0.4342    2.9573    2.2684 C   0  0  0  0  0  0  0  0  0  0  0  0
    1.1817    2.9835    1.0873 C   0  0  0  0  0  0  0  0  0  0  0  0
    1.0874    1.9284    0.1747 C   0  0  0  0  0  0  0  0  0  0  0  0
   -5.4264   -1.8677    1.4697 H   0  0  0  0  0  0  0  0  0  0  0  0
   -4.8739    0.7027   -1.0211 H   0  0  0  0  0  0  0  0  0  0  0  0
   -4.4133    1.9567    0.1779 H   0  0  0  0  0  0  0  0  0  0  0  0
   -2.1833    1.5611   -0.3436 H   0  0  0  0  0  0  0  0  0  0  0  0
   -3.4239   -2.8742   -3.1876 H   0  0  0  0  0  0  0  0  0  0  0  0
    3.3259   -1.5913   -2.5637 H   0  0  0  0  0  0  0  0  0  0  0  0
    5.7199   -1.4735   -1.9806 H   0  0  0  0  0  0  0  0  0  0  0  0
    6.4177   -0.8368    0.3109 H   0  0  0  0  0  0  0  0  0  0  0  0
    4.7074   -0.3405    2.0344 H   0  0  0  0  0  0  0  0  0  0  0  0
    2.3151   -0.4816    1.4862 H   0  0  0  0  0  0  0  0  0  0  0  0
   -1.1483   -0.0232    1.8570 H   0  0  0  0  0  0  0  0  0  0  0  0
   -0.9816    1.8525    3.4570 H   0  0  0  0  0  0  0  0  0  0  0  0
    0.5079    3.7751    2.9735 H   0  0  0  0  0  0  0  0  0  0  0  0
    1.8346    3.8212    0.8793 H   0  0  0  0  0  0  0  0  0  0  0  0
    1.6718    1.9585   -0.7367 H   0  0  0  0  0  0  0  0  0  0  0  0
  1  2  1  0
  2  3  2  0
  2  4  1  0
  4  5  1  0
  5  6  1  0
  6  7  2  0
  7  8  1  0
  8  9  2  0
  9 10  1  0
 10 11  2  0
 11 12  1  0
 12 13  2  0
 13 14  1  0
 13 15  1  0
 15 16  2  0
 16 17  1  0
 17 18  2  0
 18 19  1  0
 19 20  2  0
 12 21  1  0
 21 22  2  0
 22 23  1  0
 23 24  2  0
 24 25  1  0
 25 26  2  0
 11  6  1  0
 20 15  1  0
 26 21  1  0
 14 10  1  0
  1 27  1  0
  4 28  1  0
  4 29  1  0
  5 30  1  0
  8 31  1  0
 16 32  1  0
 17 33  1  0
 18 34  1  0
 19 35  1  0
 20 36  1  0
 22 37  1  0
 23 38  1  0
 24 39  1  0
 25 40  1  0
 26 41  1  0
M  END
$$$$
