
     RDKit          3D

 31 33  0  0  0  0  0  0  0  0999 V2000
    2.3418    2.5949   -0.9467 O   0  0  0  0  0  0  0  0  0  0  0  0
    2.6633    1.2333   -1.0390 C   0  0  0  0  0  0  0  0  0  0  0  0
    2.2030    0.4857    0.2214 C   0  0  1  0  0  0  0  0  0  0  0  0
    0.8088    0.6687    0.3832 O   0  0  0  0  0  0  0  0  0  0  0  0
    0.2055   -0.6034    0.4671 C   0  0  2  0  0  0  0  0  0  0  0  0
    1.1628   -1.6006   -0.1856 C   0  0  2  0  0  0  0  0  0  0  0  0
    1.0014   -2.9229    0.2735 O   0  0  0  0  0  0  0  0  0  0  0  0
    2.5166   -1.0134    0.1331 C   0  0  2  0  0  0  0  0  0  0  0  0
    2.9931   -1.4655    1.3766 O   0  0  0  0  0  0  0  0  0  0  0  0
   -1.1186   -0.5746   -0.1741 N   0  0  0  0  0  0  0  0  0  0  0  0
   -1.6985   -1.5075   -0.9817 C   0  0  0  0  0  0  0  0  0  0  0  0
   -2.9872   -1.2200   -1.3107 N   0  0  0  0  0  0  0  0  0  0  0  0
   -3.2089   -0.0665   -0.6573 C   0  0  0  0  0  0  0  0  0  0  0  0
   -2.1072    0.3125    0.0313 C   0  0  0  0  0  0  0  0  0  0  0  0
   -2.0973    1.4102    0.8325 N   0  0  0  0  0  0  0  0  0  0  0  0
   -3.2368    2.1636    0.9099 C   0  0  0  0  0  0  0  0  0  0  0  0
   -4.3585    1.8020    0.2082 N   0  0  0  0  0  0  0  0  0  0  0  0
   -4.3713    0.6873   -0.5793 C   0  0  0  0  0  0  0  0  0  0  0  0
   -5.4110    0.3566   -1.2073 O   0  0  0  0  0  0  0  0  0  0  0  0
    2.9972    2.9998   -0.3204 H   0  0  0  0  0  0  0  0  0  0  0  0
    3.7613    1.1088   -1.1819 H   0  0  0  0  0  0  0  0  0  0  0  0
    2.1523    0.8101   -1.9305 H   0  0  0  0  0  0  0  0  0  0  0  0
    2.7250    0.9321    1.0972 H   0  0  0  0  0  0  0  0  0  0  0  0
    0.0688   -0.8478    1.5443 H   0  0  0  0  0  0  0  0  0  0  0  0
    1.0344   -1.5832   -1.2909 H   0  0  0  0  0  0  0  0  0  0  0  0
    0.9560   -2.9119    1.2647 H   0  0  0  0  0  0  0  0  0  0  0  0
    3.2536   -1.2464   -0.6729 H   0  0  0  0  0  0  0  0  0  0  0  0
    3.4673   -2.3213    1.2080 H   0  0  0  0  0  0  0  0  0  0  0  0
   -1.2032   -2.4074   -1.3203 H   0  0  0  0  0  0  0  0  0  0  0  0
   -1.2550    1.6794    1.3863 H   0  0  0  0  0  0  0  0  0  0  0  0
   -3.2587    3.0474    1.5337 H   0  0  0  0  0  0  0  0  0  0  0  0
  1  2  1  0
  2  3  1  0
  3  4  1  0
  4  5  1  0
  5  6  1  0
  6  7  1  0
  6  8  1  0
  8  9  1  0
  5 10  1  0
 10 11  1  0
 11 12  2  0
 12 13  1  0
 13 14  2  0
 14 15  1  0
 15 16  1  0
 16 17  2  0
 17 18  1  0
 18 19  2  0
  8  3  1  0
 14 10  1  0
 18 13  1  0
  1 20  1  0
  2 21  1  0
  2 22  1  0
  3 23  1  1
  5 24  1  1
  6 25  1  6
  7 26  1  0
  8 27  1  6
  9 28  1  0
 11 29  1  0
 15 30  1  0
 16 31  1  0
M  END
$$$$
