
     RDKit          3D

 27 28  0  0  0  0  0  0  0  0999 V2000
    0.3914    1.8365   -0.7947 O   0  0  0  0  0  0  0  0  0  0  0  0
    1.3921    0.9011   -0.5213 C   0  0  0  0  0  0  0  0  0  0  0  0
    1.1283   -0.4788   -0.7049 C   0  0  0  0  0  0  0  0  0  0  0  0
   -0.2480   -0.9337   -1.1775 C   0  0  0  0  0  0  0  0  0  0  0  0
   -1.3828   -0.3794   -0.3260 C   0  0  0  0  0  0  0  0  0  0  0  0
   -1.5194   -0.7749    1.0321 C   0  0  0  0  0  0  0  0  0  0  0  0
   -0.6684   -1.7130    1.6229 O   0  0  0  0  0  0  0  0  0  0  0  0
   -2.5373   -0.2264    1.8233 C   0  0  0  0  0  0  0  0  0  0  0  0
   -2.7056   -0.6924    3.5100 Cl  0  0  0  0  0  0  0  0  0  0  0  0
   -3.4364    0.6888    1.2824 C   0  0  0  0  0  0  0  0  0  0  0  0
   -3.3399    1.0677   -0.0548 C   0  0  0  0  0  0  0  0  0  0  0  0
   -4.5151    2.2189   -0.6819 Cl  0  0  0  0  0  0  0  0  0  0  0  0
   -2.3227    0.5388   -0.8693 C   0  0  0  0  0  0  0  0  0  0  0  0
   -2.2480    1.0530   -2.5601 Cl  0  0  0  0  0  0  0  0  0  0  0  0
    2.1844   -1.4104   -0.5208 C   0  0  0  0  0  0  0  0  0  0  0  0
    1.9721   -3.1326   -0.8630 Cl  0  0  0  0  0  0  0  0  0  0  0  0
    3.4425   -0.9660   -0.0781 C   0  0  0  0  0  0  0  0  0  0  0  0
    4.7714   -2.0889    0.1918 Cl  0  0  0  0  0  0  0  0  0  0  0  0
    3.6669    0.3898    0.1516 C   0  0  0  0  0  0  0  0  0  0  0  0
    2.6585    1.3240   -0.0756 C   0  0  0  0  0  0  0  0  0  0  0  0
    3.0219    3.0231    0.2013 Cl  0  0  0  0  0  0  0  0  0  0  0  0
    0.5200    2.8342   -0.6871 H   0  0  0  0  0  0  0  0  0  0  0  0
   -0.3384   -0.6538   -2.2441 H   0  0  0  0  0  0  0  0  0  0  0  0
   -0.3548   -2.0354   -1.1745 H   0  0  0  0  0  0  0  0  0  0  0  0
    0.0483   -2.2154    1.1207 H   0  0  0  0  0  0  0  0  0  0  0  0
   -4.2206    1.1028    1.9042 H   0  0  0  0  0  0  0  0  0  0  0  0
    4.6394    0.7222    0.4934 H   0  0  0  0  0  0  0  0  0  0  0  0
  1  2  1  0
  2  3  2  0
  3  4  1  0
  4  5  1  0
  5  6  2  0
  6  7  1  0
  6  8  1  0
  8  9  1  0
  8 10  2  0
 10 11  1  0
 11 12  1  0
 11 13  2  0
 13 14  1  0
  3 15  1  0
 15 16  1  0
 15 17  2  0
 17 18  1  0
 17 19  1  0
 19 20  2  0
 20 21  1  0
 20  2  1  0
 13  5  1  0
  1 22  1  0
  4 23  1  0
  4 24  1  0
  7 25  1  0
 10 26  1  0
 19 27  1  0
M  END
$$$$
