
     RDKit          3D

 43 46  0  0  0  0  0  0  0  0999 V2000
   -1.1189    0.9928   -0.1844 C   0  0  2  0  0  0  0  0  0  0  0  0
   -1.9599    1.9761    0.6260 C   0  0  0  0  0  0  0  0  0  0  0  0
   -3.3919    1.4144    0.5531 C   0  0  0  0  0  0  0  0  0  0  0  0
   -3.2989    0.0306   -0.1511 C   0  0  1  0  0  0  0  0  0  0  0  0
   -4.2953   -0.9925    0.4424 C   0  0  0  0  0  0  0  0  0  0  0  0
   -3.5745    0.1864   -1.5274 O   0  0  0  0  0  0  0  0  0  0  0  0
   -1.7996   -0.3601    0.0316 C   0  0  2  0  0  0  0  0  0  0  0  0
   -1.5342   -0.9361    1.4636 C   0  0  0  0  0  0  0  0  0  0  0  0
   -1.2235   -1.3224   -1.0302 C   0  0  0  0  0  0  0  0  0  0  0  0
    0.3131   -1.4742   -0.8946 C   0  0  0  0  0  0  0  0  0  0  0  0
    1.0741   -0.2413   -0.3828 C   0  0  0  0  0  0  0  0  0  0  0  0
    0.3714    0.9209    0.0420 C   0  0  0  0  0  0  0  0  0  0  0  0
    1.0764    2.0379    0.5114 C   0  0  0  0  0  0  0  0  0  0  0  0
    2.4615    2.0044    0.6264 C   0  0  0  0  0  0  0  0  0  0  0  0
    3.1766    0.8619    0.2542 C   0  0  0  0  0  0  0  0  0  0  0  0
    4.5747    0.8444    0.3832 C   0  0  0  0  0  0  0  0  0  0  0  0
    5.3052   -0.2875    0.0189 C   0  0  0  0  0  0  0  0  0  0  0  0
    6.6916   -0.2843    0.1555 O   0  0  0  0  0  0  0  0  0  0  0  0
    4.6412   -1.4123   -0.4780 C   0  0  0  0  0  0  0  0  0  0  0  0
    3.2511   -1.4099   -0.6139 C   0  0  0  0  0  0  0  0  0  0  0  0
    2.4914   -0.2739   -0.2540 C   0  0  0  0  0  0  0  0  0  0  0  0
   -1.2353    1.2970   -1.2523 H   0  0  0  0  0  0  0  0  0  0  0  0
   -1.6143    2.0117    1.6827 H   0  0  0  0  0  0  0  0  0  0  0  0
   -1.9090    2.9979    0.1903 H   0  0  0  0  0  0  0  0  0  0  0  0
   -3.7982    1.3177    1.5841 H   0  0  0  0  0  0  0  0  0  0  0  0
   -4.0530    2.1125   -0.0054 H   0  0  0  0  0  0  0  0  0  0  0  0
   -5.3392   -0.6834    0.2220 H   0  0  0  0  0  0  0  0  0  0  0  0
   -4.1250   -1.9937   -0.0067 H   0  0  0  0  0  0  0  0  0  0  0  0
   -4.2039   -1.0706    1.5455 H   0  0  0  0  0  0  0  0  0  0  0  0
   -4.5079    0.5120   -1.6232 H   0  0  0  0  0  0  0  0  0  0  0  0
   -0.4545   -0.9991    1.7052 H   0  0  0  0  0  0  0  0  0  0  0  0
   -1.9439   -1.9650    1.5471 H   0  0  0  0  0  0  0  0  0  0  0  0
   -2.0034   -0.3134    2.2530 H   0  0  0  0  0  0  0  0  0  0  0  0
   -1.4420   -0.9470   -2.0540 H   0  0  0  0  0  0  0  0  0  0  0  0
   -1.7063   -2.3200   -0.9435 H   0  0  0  0  0  0  0  0  0  0  0  0
    0.5119   -2.3153   -0.1954 H   0  0  0  0  0  0  0  0  0  0  0  0
    0.7142   -1.7635   -1.8899 H   0  0  0  0  0  0  0  0  0  0  0  0
    0.5572    2.9472    0.7842 H   0  0  0  0  0  0  0  0  0  0  0  0
    2.9774    2.8804    1.0023 H   0  0  0  0  0  0  0  0  0  0  0  0
    5.1021    1.7096    0.7685 H   0  0  0  0  0  0  0  0  0  0  0  0
    7.2510   -1.0899   -0.0997 H   0  0  0  0  0  0  0  0  0  0  0  0
    5.2031   -2.2937   -0.7603 H   0  0  0  0  0  0  0  0  0  0  0  0
    2.7874   -2.3068   -0.9996 H   0  0  0  0  0  0  0  0  0  0  0  0
  1  2  1  0
  2  3  1  0
  3  4  1  0
  4  5  1  0
  4  6  1  6
  4  7  1  0
  7  8  1  1
  7  9  1  0
  9 10  1  0
 10 11  1  0
 11 12  2  0
 12 13  1  0
 13 14  2  0
 14 15  1  0
 15 16  2  0
 16 17  1  0
 17 18  1  0
 17 19  2  0
 19 20  1  0
 20 21  2  0
  7  1  1  0
 21 11  1  0
 12  1  1  0
 21 15  1  0
  1 22  1  6
  2 23  1  0
  2 24  1  0
  3 25  1  0
  3 26  1  0
  5 27  1  0
  5 28  1  0
  5 29  1  0
  6 30  1  0
  8 31  1  0
  8 32  1  0
  8 33  1  0
  9 34  1  0
  9 35  1  0
 10 36  1  0
 10 37  1  0
 13 38  1  0
 14 39  1  0
 16 40  1  0
 18 41  1  0
 19 42  1  0
 20 43  1  0
M  END
$$$$
