
     RDKit          3D

 30 31  0  0  0  0  0  0  0  0999 V2000
   -3.1740    1.9678   -2.8455 O   0  0  0  0  0  0  0  0  0  0  0  0
   -2.7082    0.6620   -2.7324 C   0  0  0  0  0  0  0  0  0  0  0  0
   -1.6504    0.3163   -3.3232 O   0  0  0  0  0  0  0  0  0  0  0  0
   -3.4347   -0.3142   -1.8646 C   0  0  0  0  0  0  0  0  0  0  0  0
   -3.0207   -0.1691   -0.5083 O   0  0  0  0  0  0  0  0  0  0  0  0
   -1.7713   -0.6096   -0.0648 C   0  0  0  0  0  0  0  0  0  0  0  0
   -1.4431   -1.9519    0.1294 C   0  0  0  0  0  0  0  0  0  0  0  0
    0.1530   -2.0256    0.6537 S   0  0  0  0  0  0  0  0  0  0  0  0
    0.4445   -0.3661    0.6400 C   0  0  0  0  0  0  0  0  0  0  0  0
   -0.7273    0.2796    0.2342 C   0  0  0  0  0  0  0  0  0  0  0  0
   -0.9661    2.1806    0.1810 Br  0  0  0  0  0  0  0  0  0  0  0  0
    1.7283    0.2573    1.0213 C   0  0  0  0  0  0  0  0  0  0  0  0
    2.2746    1.3053    0.2612 C   0  0  0  0  0  0  0  0  0  0  0  0
    3.4989    1.8763    0.6219 C   0  0  0  0  0  0  0  0  0  0  0  0
    4.1962    1.3992    1.7394 C   0  0  0  0  0  0  0  0  0  0  0  0
    5.4160    1.9612    2.1092 O   0  0  0  0  0  0  0  0  0  0  0  0
    3.6654    0.3455    2.4894 C   0  0  0  0  0  0  0  0  0  0  0  0
    2.4418   -0.2277    2.1300 C   0  0  0  0  0  0  0  0  0  0  0  0
   -2.3343   -3.1150    0.0019 C   0  0  0  0  0  0  0  0  0  0  0  0
   -3.7007   -2.9407   -0.1941 O   0  0  0  0  0  0  0  0  0  0  0  0
   -1.8623   -4.2795    0.0947 O   0  0  0  0  0  0  0  0  0  0  0  0
   -2.6809    2.6477   -3.4119 H   0  0  0  0  0  0  0  0  0  0  0  0
   -3.2531   -1.3504   -2.2222 H   0  0  0  0  0  0  0  0  0  0  0  0
   -4.5245   -0.1143   -1.9293 H   0  0  0  0  0  0  0  0  0  0  0  0
    1.7696    1.6657   -0.6254 H   0  0  0  0  0  0  0  0  0  0  0  0
    3.9082    2.6834    0.0277 H   0  0  0  0  0  0  0  0  0  0  0  0
    5.8274    2.7250    1.5855 H   0  0  0  0  0  0  0  0  0  0  0  0
    4.2020   -0.0302    3.3514 H   0  0  0  0  0  0  0  0  0  0  0  0
    2.0459   -1.0409    2.7259 H   0  0  0  0  0  0  0  0  0  0  0  0
   -4.3203   -3.7378   -0.2760 H   0  0  0  0  0  0  0  0  0  0  0  0
  1  2  1  0
  2  3  2  0
  2  4  1  0
  4  5  1  0
  5  6  1  0
  6  7  2  0
  7  8  1  0
  8  9  1  0
  9 10  2  0
 10 11  1  0
  9 12  1  0
 12 13  2  0
 13 14  1  0
 14 15  2  0
 15 16  1  0
 15 17  1  0
 17 18  2  0
  7 19  1  0
 19 20  1  0
 19 21  2  0
 10  6  1  0
 18 12  1  0
  1 22  1  0
  4 23  1  0
  4 24  1  0
 13 25  1  0
 14 26  1  0
 16 27  1  0
 17 28  1  0
 18 29  1  0
 20 30  1  0
M  END
$$$$
