
     RDKit          3D

 64 67  0  0  0  0  0  0  0  0999 V2000
   -1.5180   -0.1508   -0.9122 C   0  0  2  0  0  0  0  0  0  0  0  0
   -2.8724   -0.8942   -0.8508 C   0  0  0  0  0  0  0  0  0  0  0  0
   -2.9526   -1.9531    0.2774 C   0  0  0  0  0  0  0  0  0  0  0  0
   -4.4134   -2.4001    0.4885 C   0  0  0  0  0  0  0  0  0  0  0  0
   -4.5553   -3.3460    1.6990 C   0  0  0  0  0  0  0  0  0  0  0  0
   -3.2983   -4.1964    1.9645 C   0  0  0  0  0  0  0  0  0  0  0  0
   -2.5305   -4.4816    0.6719 C   0  0  0  0  0  0  0  0  0  0  0  0
   -2.0423   -3.1817    0.0008 C   0  0  0  0  0  0  0  0  0  0  0  0
   -1.6755    1.0985   -1.6615 N   0  0  0  0  0  0  0  0  0  0  0  0
   -2.0741    2.3227   -1.0351 C   0  0  0  0  0  0  0  0  0  0  0  0
   -2.2771    2.4484    0.3043 N   0  0  0  0  0  0  0  0  0  0  0  0
   -2.6299    3.7409    0.4054 C   0  0  0  0  0  0  0  0  0  0  0  0
   -2.9626    4.4496    1.5573 C   0  0  0  0  0  0  0  0  0  0  0  0
   -3.3019    5.8089    1.4121 C   0  0  0  0  0  0  0  0  0  0  0  0
   -3.2994    6.4153    0.1339 C   0  0  0  0  0  0  0  0  0  0  0  0
   -2.9577    5.6673   -1.0091 C   0  0  0  0  0  0  0  0  0  0  0  0
   -2.6285    4.3275   -0.8246 C   0  0  0  0  0  0  0  0  0  0  0  0
   -2.2818    3.4381   -1.7147 O   0  0  0  0  0  0  0  0  0  0  0  0
   -0.4417   -0.9822   -1.5630 C   0  0  0  0  0  0  0  0  0  0  0  0
   -0.6252   -1.4459   -2.7220 O   0  0  0  0  0  0  0  0  0  0  0  0
    0.7964   -1.2234   -0.8787 N   0  0  0  0  0  0  0  0  0  0  0  0
    1.9094   -1.9446   -1.4936 C   0  0  0  0  0  0  0  0  0  0  0  0
    2.5927   -1.0877   -2.5661 C   0  0  0  0  0  0  0  0  0  0  0  0
    2.9633    0.2262   -2.0361 N   0  0  0  0  0  0  0  0  0  0  0  0
    3.9915    0.4542   -1.0530 C   0  0  0  0  0  0  0  0  0  0  0  0
    4.0654    1.7042   -0.4198 C   0  0  0  0  0  0  0  0  0  0  0  0
    5.0507    1.9598    0.5375 C   0  0  0  0  0  0  0  0  0  0  0  0
    5.9846    0.9757    0.8770 C   0  0  0  0  0  0  0  0  0  0  0  0
    6.9532    1.2808    1.8448 O   0  0  0  0  0  0  0  0  0  0  0  0
    7.9613    0.3770    2.2857 C   0  0  0  0  0  0  0  0  0  0  0  0
    5.9219   -0.2771    0.2395 C   0  0  0  0  0  0  0  0  0  0  0  0
    4.9363   -0.5342   -0.7185 C   0  0  0  0  0  0  0  0  0  0  0  0
   -1.1981    0.0922    0.1248 H   0  0  0  0  0  0  0  0  0  0  0  0
   -3.1129   -1.3553   -1.8342 H   0  0  0  0  0  0  0  0  0  0  0  0
   -3.6611   -0.1329   -0.6601 H   0  0  0  0  0  0  0  0  0  0  0  0
   -2.6185   -1.4728    1.2252 H   0  0  0  0  0  0  0  0  0  0  0  0
   -4.7716   -2.9193   -0.4284 H   0  0  0  0  0  0  0  0  0  0  0  0
   -5.0691   -1.5166    0.6503 H   0  0  0  0  0  0  0  0  0  0  0  0
   -4.7774   -2.7486    2.6101 H   0  0  0  0  0  0  0  0  0  0  0  0
   -5.4245   -4.0172    1.5248 H   0  0  0  0  0  0  0  0  0  0  0  0
   -2.6277   -3.6600    2.6718 H   0  0  0  0  0  0  0  0  0  0  0  0
   -3.5928   -5.1555    2.4428 H   0  0  0  0  0  0  0  0  0  0  0  0
   -3.1959   -5.0345   -0.0276 H   0  0  0  0  0  0  0  0  0  0  0  0
   -1.6594   -5.1359    0.8926 H   0  0  0  0  0  0  0  0  0  0  0  0
   -1.9660   -3.3728   -1.0918 H   0  0  0  0  0  0  0  0  0  0  0  0
   -1.0203   -2.9553    0.3737 H   0  0  0  0  0  0  0  0  0  0  0  0
   -1.6289    1.0801   -2.7058 H   0  0  0  0  0  0  0  0  0  0  0  0
   -2.9607    3.9737    2.5294 H   0  0  0  0  0  0  0  0  0  0  0  0
   -3.5661    6.3929    2.2840 H   0  0  0  0  0  0  0  0  0  0  0  0
   -3.5617    7.4604    0.0336 H   0  0  0  0  0  0  0  0  0  0  0  0
   -2.9512    6.1166   -1.9935 H   0  0  0  0  0  0  0  0  0  0  0  0
    0.9047   -0.9026    0.1099 H   0  0  0  0  0  0  0  0  0  0  0  0
    2.6457   -2.2159   -0.7081 H   0  0  0  0  0  0  0  0  0  0  0  0
    1.5417   -2.8917   -1.9440 H   0  0  0  0  0  0  0  0  0  0  0  0
    1.8931   -0.9502   -3.4183 H   0  0  0  0  0  0  0  0  0  0  0  0
    3.4866   -1.6082   -2.9687 H   0  0  0  0  0  0  0  0  0  0  0  0
    2.4118    1.0468   -2.3765 H   0  0  0  0  0  0  0  0  0  0  0  0
    3.3523    2.4817   -0.6640 H   0  0  0  0  0  0  0  0  0  0  0  0
    5.0887    2.9289    1.0188 H   0  0  0  0  0  0  0  0  0  0  0  0
    7.4952   -0.5235    2.7386 H   0  0  0  0  0  0  0  0  0  0  0  0
    8.6106    0.0841    1.4337 H   0  0  0  0  0  0  0  0  0  0  0  0
    8.5865    0.8775    3.0531 H   0  0  0  0  0  0  0  0  0  0  0  0
    6.6317   -1.0585    0.4747 H   0  0  0  0  0  0  0  0  0  0  0  0
    4.9267   -1.5035   -1.1958 H   0  0  0  0  0  0  0  0  0  0  0  0
  1  2  1  0
  2  3  1  0
  3  4  1  0
  4  5  1  0
  5  6  1  0
  6  7  1  0
  7  8  1  0
  1  9  1  0
  9 10  1  0
 10 11  2  0
 11 12  1  0
 12 13  2  0
 13 14  1  0
 14 15  2  0
 15 16  1  0
 16 17  2  0
 17 18  1  0
  1 19  1  0
 19 20  2  0
 19 21  1  0
 21 22  1  0
 22 23  1  0
 23 24  1  0
 24 25  1  0
 25 26  2  0
 26 27  1  0
 27 28  2  0
 28 29  1  0
 29 30  1  0
 28 31  1  0
 31 32  2  0
  8  3  1  0
 18 10  1  0
 32 25  1  0
 17 12  1  0
  1 33  1  1
  2 34  1  0
  2 35  1  0
  3 36  1  0
  4 37  1  0
  4 38  1  0
  5 39  1  0
  5 40  1  0
  6 41  1  0
  6 42  1  0
  7 43  1  0
  7 44  1  0
  8 45  1  0
  8 46  1  0
  9 47  1  0
 13 48  1  0
 14 49  1  0
 15 50  1  0
 16 51  1  0
 21 52  1  0
 22 53  1  0
 22 54  1  0
 23 55  1  0
 23 56  1  0
 24 57  1  0
 26 58  1  0
 27 59  1  0
 30 60  1  0
 30 61  1  0
 30 62  1  0
 31 63  1  0
 32 64  1  0
M  END
$$$$
