
     RDKit          3D

 58 62  0  0  0  0  0  0  0  0999 V2000
   -6.2020   -2.3579   -3.0707 C   0  0  0  0  0  0  0  0  0  0  0  0
   -6.6490   -1.8937   -1.8008 O   0  0  0  0  0  0  0  0  0  0  0  0
   -5.8756   -1.1244   -0.9166 C   0  0  0  0  0  0  0  0  0  0  0  0
   -6.4479   -0.7374    0.3033 C   0  0  0  0  0  0  0  0  0  0  0  0
   -7.7657   -1.1423    0.5728 O   0  0  0  0  0  0  0  0  0  0  0  0
   -8.4832   -0.8302    1.7626 C   0  0  0  0  0  0  0  0  0  0  0  0
   -5.7008    0.0353    1.2154 C   0  0  0  0  0  0  0  0  0  0  0  0
   -4.3800    0.4258    0.9149 C   0  0  0  0  0  0  0  0  0  0  0  0
   -3.5722    1.2019    1.7831 C   0  0  0  0  0  0  0  0  0  0  0  0
   -4.0264    1.6703    3.0597 N   0  0  0  0  0  0  0  0  0  0  0  0
   -2.3083    1.5241    1.3998 N   0  0  0  0  0  0  0  0  0  0  0  0
   -1.7867    1.1281    0.2089 C   0  0  0  0  0  0  0  0  0  0  0  0
   -2.5480    0.3860   -0.6358 N   0  0  0  0  0  0  0  0  0  0  0  0
   -3.8174    0.0274   -0.3178 C   0  0  0  0  0  0  0  0  0  0  0  0
   -4.5589   -0.7382   -1.2206 C   0  0  0  0  0  0  0  0  0  0  0  0
   -0.4403    1.4992   -0.1522 N   0  0  0  0  0  0  0  0  0  0  0  0
    0.1773    0.9894   -1.3851 C   0  0  0  0  0  0  0  0  0  0  0  0
    1.6554    0.6606   -1.1450 C   0  0  0  0  0  0  0  0  0  0  0  0
    2.3537    1.7430   -0.4321 N   0  0  0  0  0  0  0  0  0  0  0  0
    1.5968    2.9175    0.0240 C   0  0  0  0  0  0  0  0  0  0  0  0
    0.2793    2.4815    0.6734 C   0  0  0  0  0  0  0  0  0  0  0  0
    3.7913    1.7130   -0.2844 C   0  0  0  0  0  0  0  0  0  0  0  0
    4.4157    2.7800   -0.0313 O   0  0  0  0  0  0  0  0  0  0  0  0
    4.5671    0.4203   -0.3428 C   0  0  0  0  0  0  0  0  0  0  0  0
    4.4969   -0.3116    1.0103 C   0  0  0  0  0  0  0  0  0  0  0  0
    5.3894   -1.4286    1.0125 O   0  0  0  0  0  0  0  0  0  0  0  0
    6.6512   -1.3439    0.4158 C   0  0  0  0  0  0  0  0  0  0  0  0
    7.6222   -2.3223    0.6507 C   0  0  0  0  0  0  0  0  0  0  0  0
    8.8886   -2.1989    0.0677 C   0  0  0  0  0  0  0  0  0  0  0  0
    9.1815   -1.1007   -0.7504 C   0  0  0  0  0  0  0  0  0  0  0  0
    8.2050   -0.1289   -0.9973 C   0  0  0  0  0  0  0  0  0  0  0  0
    6.9353   -0.2596   -0.4266 C   0  0  0  0  0  0  0  0  0  0  0  0
    5.9334    0.6814   -0.6844 O   0  0  0  0  0  0  0  0  0  0  0  0
   -5.3195   -3.0204   -2.9461 H   0  0  0  0  0  0  0  0  0  0  0  0
   -5.9458   -1.4969   -3.7236 H   0  0  0  0  0  0  0  0  0  0  0  0
   -7.0161   -2.9379   -3.5515 H   0  0  0  0  0  0  0  0  0  0  0  0
   -9.4963   -1.2777    1.7023 H   0  0  0  0  0  0  0  0  0  0  0  0
   -7.9605   -1.2536    2.6462 H   0  0  0  0  0  0  0  0  0  0  0  0
   -8.5873    0.2703    1.8687 H   0  0  0  0  0  0  0  0  0  0  0  0
   -6.1615    0.3190    2.1449 H   0  0  0  0  0  0  0  0  0  0  0  0
   -3.3807    2.2358    3.6546 H   0  0  0  0  0  0  0  0  0  0  0  0
   -4.9761    1.4866    3.4435 H   0  0  0  0  0  0  0  0  0  0  0  0
   -4.1008   -1.0282   -2.1572 H   0  0  0  0  0  0  0  0  0  0  0  0
    0.0888    1.7595   -2.1816 H   0  0  0  0  0  0  0  0  0  0  0  0
   -0.3282    0.0663   -1.7411 H   0  0  0  0  0  0  0  0  0  0  0  0
    2.1382    0.4882   -2.1312 H   0  0  0  0  0  0  0  0  0  0  0  0
    1.7204   -0.2730   -0.5462 H   0  0  0  0  0  0  0  0  0  0  0  0
    1.3870    3.5771   -0.8457 H   0  0  0  0  0  0  0  0  0  0  0  0
    2.1748    3.5036    0.7712 H   0  0  0  0  0  0  0  0  0  0  0  0
    0.4953    2.0307    1.6664 H   0  0  0  0  0  0  0  0  0  0  0  0
   -0.3550    3.3820    0.8250 H   0  0  0  0  0  0  0  0  0  0  0  0
    4.1497   -0.2463   -1.1257 H   0  0  0  0  0  0  0  0  0  0  0  0
    3.4640   -0.6675    1.2084 H   0  0  0  0  0  0  0  0  0  0  0  0
    4.7943    0.3816    1.8274 H   0  0  0  0  0  0  0  0  0  0  0  0
    7.4011   -3.1659    1.2918 H   0  0  0  0  0  0  0  0  0  0  0  0
    9.6445   -2.9510    0.2535 H   0  0  0  0  0  0  0  0  0  0  0  0
   10.1630   -1.0058   -1.1966 H   0  0  0  0  0  0  0  0  0  0  0  0
    8.4293    0.7135   -1.6389 H   0  0  0  0  0  0  0  0  0  0  0  0
  1  2  1  0
  2  3  1  0
  3  4  2  0
  4  5  1  0
  5  6  1  0
  4  7  1  0
  7  8  2  0
  8  9  1  0
  9 10  1  0
  9 11  2  0
 11 12  1  0
 12 13  2  0
 13 14  1  0
 14 15  2  0
 12 16  1  0
 16 17  1  0
 17 18  1  0
 18 19  1  0
 19 20  1  0
 20 21  1  0
 19 22  1  0
 22 23  2  0
 22 24  1  0
 24 25  1  0
 25 26  1  0
 26 27  1  0
 27 28  2  0
 28 29  1  0
 29 30  2  0
 30 31  1  0
 31 32  2  0
 32 33  1  0
 15  3  1  0
 21 16  1  0
 33 24  1  0
 14  8  1  0
 32 27  1  0
  1 34  1  0
  1 35  1  0
  1 36  1  0
  6 37  1  0
  6 38  1  0
  6 39  1  0
  7 40  1  0
 10 41  1  0
 10 42  1  0
 15 43  1  0
 17 44  1  0
 17 45  1  0
 18 46  1  0
 18 47  1  0
 20 48  1  0
 20 49  1  0
 21 50  1  0
 21 51  1  0
 24 52  1  0
 25 53  1  0
 25 54  1  0
 28 55  1  0
 29 56  1  0
 30 57  1  0
 31 58  1  0
M  END
$$$$
