
     RDKit          3D

 59 64  0  0  0  0  0  0  0  0999 V2000
    4.9346   -0.8258    1.1157 N   0  0  0  0  0  0  0  0  0  0  0  0
    5.0210   -0.6661   -0.2241 C   0  0  0  0  0  0  0  0  0  0  0  0
    3.8999    0.0004   -0.7080 C   0  0  0  0  0  0  0  0  0  0  0  0
    3.1196    0.2757    0.4029 C   0  0  0  0  0  0  0  0  0  0  0  0
    1.9172    0.9717    0.5475 C   0  0  0  0  0  0  0  0  0  0  0  0
    1.3623    1.0688    1.8356 C   0  0  0  0  0  0  0  0  0  0  0  0
    2.0247    0.4981    2.9440 C   0  0  0  0  0  0  0  0  0  0  0  0
    3.2532   -0.1659    2.7751 C   0  0  0  0  0  0  0  0  0  0  0  0
    3.7759   -0.2536    1.4854 C   0  0  0  0  0  0  0  0  0  0  0  0
    3.6103    0.2812   -2.1275 C   0  0  0  0  0  0  0  0  0  0  0  0
    2.4517    0.0925   -2.7741 C   0  0  0  0  0  0  0  0  0  0  0  0
    2.6222    0.5842   -4.1416 C   0  0  0  0  0  0  0  0  0  0  0  0
    1.7353    0.5809   -5.0354 O   0  0  0  0  0  0  0  0  0  0  0  0
    3.9440    1.0578   -4.3469 N   0  0  0  0  0  0  0  0  0  0  0  0
    4.5581    0.8575   -3.0831 C   0  0  0  0  0  0  0  0  0  0  0  0
    5.7542    1.1616   -2.8333 O   0  0  0  0  0  0  0  0  0  0  0  0
    1.2213   -0.5165   -2.2395 C   0  0  0  0  0  0  0  0  0  0  0  0
   -0.0421    0.0613   -2.2680 C   0  0  0  0  0  0  0  0  0  0  0  0
   -0.9105   -0.6756   -1.5358 N   0  0  0  0  0  0  0  0  0  0  0  0
   -2.2701   -0.2750   -1.1766 C   0  0  0  0  0  0  0  0  0  0  0  0
   -2.2514    0.4901    0.1531 C   0  0  0  0  0  0  0  0  0  0  0  0
   -3.6506    0.9748    0.5708 C   0  0  1  0  0  0  0  0  0  0  0  0
   -4.5939   -0.1801    0.8938 C   0  0  0  0  0  0  0  0  0  0  0  0
   -5.5154    0.3886    1.9425 C   0  0  0  0  0  0  0  0  0  0  0  0
   -4.6692    1.4187    2.6711 C   0  0  0  0  0  0  0  0  0  0  0  0
   -3.5483    1.7955    1.7919 N   0  0  0  0  0  0  0  0  0  0  0  0
   -3.5605    3.2349    1.4837 C   0  0  0  0  0  0  0  0  0  0  0  0
   -0.2071   -1.7189   -1.0467 C   0  0  0  0  0  0  0  0  0  0  0  0
   -0.6490   -2.7287   -0.1862 C   0  0  0  0  0  0  0  0  0  0  0  0
    0.2782   -3.7066    0.2150 C   0  0  0  0  0  0  0  0  0  0  0  0
    1.6119   -3.6590   -0.2432 C   0  0  0  0  0  0  0  0  0  0  0  0
    2.0342   -2.6272   -1.0986 C   0  0  0  0  0  0  0  0  0  0  0  0
    1.0979   -1.6607   -1.4701 C   0  0  0  0  0  0  0  0  0  0  0  0
    5.6281   -1.3025    1.7339 H   0  0  0  0  0  0  0  0  0  0  0  0
    5.8393   -1.0422   -0.8243 H   0  0  0  0  0  0  0  0  0  0  0  0
    1.4287    1.4392   -0.2953 H   0  0  0  0  0  0  0  0  0  0  0  0
    0.4256    1.5919    1.9789 H   0  0  0  0  0  0  0  0  0  0  0  0
    1.5903    0.5818    3.9316 H   0  0  0  0  0  0  0  0  0  0  0  0
    3.7757   -0.5935    3.6210 H   0  0  0  0  0  0  0  0  0  0  0  0
    4.3620    1.4591   -5.2153 H   0  0  0  0  0  0  0  0  0  0  0  0
   -0.2875    1.0112   -2.7262 H   0  0  0  0  0  0  0  0  0  0  0  0
   -2.9163   -1.1749   -1.1014 H   0  0  0  0  0  0  0  0  0  0  0  0
   -2.6904    0.3737   -1.9762 H   0  0  0  0  0  0  0  0  0  0  0  0
   -1.8203   -0.1525    0.9521 H   0  0  0  0  0  0  0  0  0  0  0  0
   -1.5847    1.3727    0.0402 H   0  0  0  0  0  0  0  0  0  0  0  0
   -4.0999    1.5570   -0.2695 H   0  0  0  0  0  0  0  0  0  0  0  0
   -4.0391   -1.0432    1.3258 H   0  0  0  0  0  0  0  0  0  0  0  0
   -5.1594   -0.5140   -0.0035 H   0  0  0  0  0  0  0  0  0  0  0  0
   -5.8886   -0.4003    2.6312 H   0  0  0  0  0  0  0  0  0  0  0  0
   -6.3772    0.8914    1.4502 H   0  0  0  0  0  0  0  0  0  0  0  0
   -4.2502    0.9618    3.5934 H   0  0  0  0  0  0  0  0  0  0  0  0
   -5.3010    2.2836    2.9788 H   0  0  0  0  0  0  0  0  0  0  0  0
   -4.5186    3.5366    1.0040 H   0  0  0  0  0  0  0  0  0  0  0  0
   -3.4227    3.8203    2.4179 H   0  0  0  0  0  0  0  0  0  0  0  0
   -2.7189    3.4867    0.8036 H   0  0  0  0  0  0  0  0  0  0  0  0
   -1.6703   -2.7648    0.1684 H   0  0  0  0  0  0  0  0  0  0  0  0
   -0.0340   -4.5024    0.8787 H   0  0  0  0  0  0  0  0  0  0  0  0
    2.3153   -4.4202    0.0681 H   0  0  0  0  0  0  0  0  0  0  0  0
    3.0545   -2.5909   -1.4553 H   0  0  0  0  0  0  0  0  0  0  0  0
  1  2  1  0
  2  3  2  0
  3  4  1  0
  4  5  2  0
  5  6  1  0
  6  7  2  0
  7  8  1  0
  8  9  2  0
  3 10  1  0
 10 11  2  0
 11 12  1  0
 12 13  2  0
 12 14  1  0
 14 15  1  0
 15 16  2  0
 11 17  1  0
 17 18  2  0
 18 19  1  0
 19 20  1  0
 20 21  1  0
 21 22  1  0
 22 23  1  0
 23 24  1  0
 24 25  1  0
 25 26  1  0
 26 27  1  0
 19 28  1  0
 28 29  2  0
 29 30  1  0
 30 31  2  0
 31 32  1  0
 32 33  2  0
  9  1  1  0
 15 10  1  0
 33 17  1  0
  9  4  1  0
 26 22  1  0
 33 28  1  0
  1 34  1  0
  2 35  1  0
  5 36  1  0
  6 37  1  0
  7 38  1  0
  8 39  1  0
 14 40  1  0
 18 41  1  0
 20 42  1  0
 20 43  1  0
 21 44  1  0
 21 45  1  0
 22 46  1  6
 23 47  1  0
 23 48  1  0
 24 49  1  0
 24 50  1  0
 25 51  1  0
 25 52  1  0
 27 53  1  0
 27 54  1  0
 27 55  1  0
 29 56  1  0
 30 57  1  0
 31 58  1  0
 32 59  1  0
M  END
$$$$
