
     RDKit          3D

 85 87  0  0  0  0  0  0  0  0999 V2000
   -6.0338   -3.7543    2.1649 C   0  0  0  0  0  0  0  0  0  0  0  0
   -5.4360   -2.4825    1.5763 C   0  0  0  0  0  0  0  0  0  0  0  0
   -4.4310   -2.8181    0.5232 C   0  0  0  0  0  0  0  0  0  0  0  0
   -4.7686   -2.8010   -0.6919 O   0  0  0  0  0  0  0  0  0  0  0  0
   -3.1337   -3.1793    0.9064 O   0  0  0  0  0  0  0  0  0  0  0  0
   -2.0972   -3.5376   -0.0148 C   0  0  1  0  0  0  0  0  0  0  0  0
   -0.8572   -3.0504    0.4581 O   0  0  0  0  0  0  0  0  0  0  0  0
   -0.7682   -1.3602    0.2142 P   0  0  2  0  0  5  0  0  0  0  0  0
   -2.0522   -0.6941    0.6600 O   0  0  0  0  0  0  0  0  0  0  0  0
   -0.4209   -1.0016   -1.5496 C   0  0  0  0  0  0  0  0  0  0  0  0
   -1.1365    0.2688   -2.0233 C   0  0  0  0  0  0  0  0  0  0  0  0
   -2.5992   -0.0137   -2.4177 C   0  0  0  0  0  0  0  0  0  0  0  0
   -3.4663    1.2529   -2.4027 C   0  0  0  0  0  0  0  0  0  0  0  0
   -3.7565    1.7036   -0.9927 C   0  0  0  0  0  0  0  0  0  0  0  0
   -3.0561    2.7842   -0.4316 C   0  0  0  0  0  0  0  0  0  0  0  0
   -3.2798    3.1556    0.8975 C   0  0  0  0  0  0  0  0  0  0  0  0
   -4.2052    2.4535    1.6745 C   0  0  0  0  0  0  0  0  0  0  0  0
   -4.9107    1.3807    1.1227 C   0  0  0  0  0  0  0  0  0  0  0  0
   -4.6892    1.0060   -0.2059 C   0  0  0  0  0  0  0  0  0  0  0  0
    0.5894   -0.7184    1.2439 C   0  0  0  0  0  0  0  0  0  0  0  0
    0.6413    0.7849    1.1896 C   0  0  0  0  0  0  0  0  0  0  0  0
   -0.2964    1.4372    1.7246 O   0  0  0  0  0  0  0  0  0  0  0  0
    1.7273    1.4946    0.5589 N   0  0  0  0  0  0  0  0  0  0  0  0
    2.9067    0.8557   -0.0061 C   0  0  0  0  0  0  0  0  0  0  0  0
    3.7663    1.9964   -0.5607 C   0  0  1  0  0  0  0  0  0  0  0  0
    3.2605    3.2701    0.1333 C   0  0  0  0  0  0  0  0  0  0  0  0
    1.8305    2.9500    0.5760 C   0  0  1  0  0  0  0  0  0  0  0  0
    0.8210    3.5635   -0.3534 C   0  0  0  0  0  0  0  0  0  0  0  0
    0.0542    4.6409    0.0785 O   0  0  0  0  0  0  0  0  0  0  0  0
    0.6942    3.1338   -1.5318 O   0  0  0  0  0  0  0  0  0  0  0  0
    5.3004    1.7506   -0.4667 C   0  0  0  0  0  0  0  0  0  0  0  0
    5.8115    1.4237    0.9699 C   0  0  0  0  0  0  0  0  0  0  0  0
    7.2491    1.9065    1.2359 C   0  0  0  0  0  0  0  0  0  0  0  0
    8.1213    1.7633   -0.0140 C   0  0  0  0  0  0  0  0  0  0  0  0
    7.5938    2.6164   -1.1853 C   0  0  0  0  0  0  0  0  0  0  0  0
    6.0860    2.9220   -1.0946 C   0  0  0  0  0  0  0  0  0  0  0  0
   -2.0044   -5.0749   -0.1427 C   0  0  0  0  0  0  0  0  0  0  0  0
   -1.7730   -5.7483    1.2185 C   0  0  0  0  0  0  0  0  0  0  0  0
   -3.2454   -5.6665   -0.8244 C   0  0  0  0  0  0  0  0  0  0  0  0
   -5.2374   -4.3778    2.6255 H   0  0  0  0  0  0  0  0  0  0  0  0
   -6.7752   -3.4888    2.9476 H   0  0  0  0  0  0  0  0  0  0  0  0
   -6.5463   -4.3414    1.3729 H   0  0  0  0  0  0  0  0  0  0  0  0
   -4.9412   -1.8983    2.3814 H   0  0  0  0  0  0  0  0  0  0  0  0
   -6.2465   -1.8572    1.1425 H   0  0  0  0  0  0  0  0  0  0  0  0
   -2.3113   -3.1315   -1.0303 H   0  0  0  0  0  0  0  0  0  0  0  0
    0.6735   -0.8730   -1.6694 H   0  0  0  0  0  0  0  0  0  0  0  0
   -0.7150   -1.8662   -2.1805 H   0  0  0  0  0  0  0  0  0  0  0  0
   -1.0708    1.0408   -1.2296 H   0  0  0  0  0  0  0  0  0  0  0  0
   -0.6045    0.6734   -2.9116 H   0  0  0  0  0  0  0  0  0  0  0  0
   -2.6113   -0.4432   -3.4431 H   0  0  0  0  0  0  0  0  0  0  0  0
   -3.0542   -0.7745   -1.7484 H   0  0  0  0  0  0  0  0  0  0  0  0
   -4.4290    1.0341   -2.9137 H   0  0  0  0  0  0  0  0  0  0  0  0
   -2.9679    2.0593   -2.9845 H   0  0  0  0  0  0  0  0  0  0  0  0
   -2.3292    3.3287   -1.0196 H   0  0  0  0  0  0  0  0  0  0  0  0
   -2.7312    3.9841    1.3265 H   0  0  0  0  0  0  0  0  0  0  0  0
   -4.3747    2.7399    2.7043 H   0  0  0  0  0  0  0  0  0  0  0  0
   -5.6249    0.8355    1.7261 H   0  0  0  0  0  0  0  0  0  0  0  0
   -5.2326    0.1647   -0.6177 H   0  0  0  0  0  0  0  0  0  0  0  0
    0.4134   -1.0324    2.2941 H   0  0  0  0  0  0  0  0  0  0  0  0
    1.5377   -1.1842    0.9131 H   0  0  0  0  0  0  0  0  0  0  0  0
    3.4255    0.2862    0.7915 H   0  0  0  0  0  0  0  0  0  0  0  0
    2.6194    0.1629   -0.8244 H   0  0  0  0  0  0  0  0  0  0  0  0
    3.5087    2.0955   -1.6407 H   0  0  0  0  0  0  0  0  0  0  0  0
    3.8687    3.5137    1.0286 H   0  0  0  0  0  0  0  0  0  0  0  0
    3.3109    4.1447   -0.5535 H   0  0  0  0  0  0  0  0  0  0  0  0
    1.6671    3.3285    1.6097 H   0  0  0  0  0  0  0  0  0  0  0  0
   -0.6101    5.0886   -0.5411 H   0  0  0  0  0  0  0  0  0  0  0  0
    5.5114    0.8572   -1.0982 H   0  0  0  0  0  0  0  0  0  0  0  0
    5.7852    0.3206    1.1099 H   0  0  0  0  0  0  0  0  0  0  0  0
    5.1535    1.8547    1.7515 H   0  0  0  0  0  0  0  0  0  0  0  0
    7.6903    1.3158    2.0677 H   0  0  0  0  0  0  0  0  0  0  0  0
    7.2333    2.9729    1.5519 H   0  0  0  0  0  0  0  0  0  0  0  0
    8.1432    0.6926   -0.3155 H   0  0  0  0  0  0  0  0  0  0  0  0
    9.1642    2.0645    0.2248 H   0  0  0  0  0  0  0  0  0  0  0  0
    7.8037    2.0827   -2.1379 H   0  0  0  0  0  0  0  0  0  0  0  0
    8.1479    3.5797   -1.2192 H   0  0  0  0  0  0  0  0  0  0  0  0
    5.9405    3.8376   -0.4805 H   0  0  0  0  0  0  0  0  0  0  0  0
    5.7016    3.1389   -2.1153 H   0  0  0  0  0  0  0  0  0  0  0  0
   -1.1293   -5.3077   -0.7897 H   0  0  0  0  0  0  0  0  0  0  0  0
   -1.6502   -6.8444    1.0851 H   0  0  0  0  0  0  0  0  0  0  0  0
   -2.6317   -5.5684    1.9003 H   0  0  0  0  0  0  0  0  0  0  0  0
   -0.8487   -5.3568    1.6935 H   0  0  0  0  0  0  0  0  0  0  0  0
   -4.1469   -5.5405   -0.1880 H   0  0  0  0  0  0  0  0  0  0  0  0
   -3.4202   -5.1735   -1.8043 H   0  0  0  0  0  0  0  0  0  0  0  0
   -3.0957   -6.7517   -1.0086 H   0  0  0  0  0  0  0  0  0  0  0  0
  1  2  1  0
  2  3  1  0
  3  4  2  0
  3  5  1  0
  5  6  1  0
  6  7  1  0
  8  7  1  6
  8  9  2  0
  8 10  1  0
 10 11  1  0
 11 12  1  0
 12 13  1  0
 13 14  1  0
 14 15  2  0
 15 16  1  0
 16 17  2  0
 17 18  1  0
 18 19  2  0
  8 20  1  0
 20 21  1  0
 21 22  2  0
 21 23  1  0
 23 24  1  0
 24 25  1  0
 25 26  1  0
 26 27  1  0
 27 28  1  0
 28 29  1  0
 28 30  2  0
 25 31  1  0
 31 32  1  0
 32 33  1  0
 33 34  1  0
 34 35  1  0
 35 36  1  0
  6 37  1  0
 37 38  1  0
 37 39  1  0
 19 14  1  0
 27 23  1  0
 36 31  1  0
  1 40  1  0
  1 41  1  0
  1 42  1  0
  2 43  1  0
  2 44  1  0
  6 45  1  6
 10 46  1  0
 10 47  1  0
 11 48  1  0
 11 49  1  0
 12 50  1  0
 12 51  1  0
 13 52  1  0
 13 53  1  0
 15 54  1  0
 16 55  1  0
 17 56  1  0
 18 57  1  0
 19 58  1  0
 20 59  1  0
 20 60  1  0
 24 61  1  0
 24 62  1  0
 25 63  1  6
 26 64  1  0
 26 65  1  0
 27 66  1  1
 29 67  1  0
 31 68  1  0
 32 69  1  0
 32 70  1  0
 33 71  1  0
 33 72  1  0
 34 73  1  0
 34 74  1  0
 35 75  1  0
 35 76  1  0
 36 77  1  0
 36 78  1  0
 37 79  1  0
 38 80  1  0
 38 81  1  0
 38 82  1  0
 39 83  1  0
 39 84  1  0
 39 85  1  0
M  END
$$$$
