
     RDKit          3D

 21 21  0  0  0  0  0  0  0  0999 V2000
    4.2692    0.2952   -0.3738 O   0  0  0  0  0  0  0  0  0  0  0  0
    3.6371   -0.5439    0.5406 C   0  0  0  0  0  0  0  0  0  0  0  0
    4.3278   -1.2983    1.2758 O   0  0  0  0  0  0  0  0  0  0  0  0
    2.1711   -0.5638    0.6587 C   0  0  0  0  0  0  0  0  0  0  0  0
    1.3895    0.2364   -0.0763 C   0  0  0  0  0  0  0  0  0  0  0  0
   -0.0858    0.2568    0.0504 C   0  0  0  0  0  0  0  0  0  0  0  0
   -0.8538   -0.9201    0.2040 C   0  0  0  0  0  0  0  0  0  0  0  0
   -0.2422   -2.1737    0.2069 O   0  0  0  0  0  0  0  0  0  0  0  0
   -2.2489   -0.8311    0.3251 C   0  0  0  0  0  0  0  0  0  0  0  0
   -2.8886    0.4098    0.2662 C   0  0  0  0  0  0  0  0  0  0  0  0
   -4.2750    0.4756    0.3864 O   0  0  0  0  0  0  0  0  0  0  0  0
   -2.1327    1.5726    0.0809 C   0  0  0  0  0  0  0  0  0  0  0  0
   -0.7426    1.4953   -0.0335 C   0  0  0  0  0  0  0  0  0  0  0  0
    5.2789    0.3083   -0.4556 H   0  0  0  0  0  0  0  0  0  0  0  0
    1.7332   -1.2306    1.3908 H   0  0  0  0  0  0  0  0  0  0  0  0
    1.8454    0.9642   -0.7376 H   0  0  0  0  0  0  0  0  0  0  0  0
   -0.7785   -3.0276    0.3072 H   0  0  0  0  0  0  0  0  0  0  0  0
   -2.8397   -1.7299    0.4512 H   0  0  0  0  0  0  0  0  0  0  0  0
   -4.7687    1.3596    0.3459 H   0  0  0  0  0  0  0  0  0  0  0  0
   -2.6209    2.5373    0.0264 H   0  0  0  0  0  0  0  0  0  0  0  0
   -0.1750    2.4077   -0.1723 H   0  0  0  0  0  0  0  0  0  0  0  0
  1  2  1  0
  2  3  2  0
  2  4  1  0
  4  5  2  0
  5  6  1  0
  6  7  2  0
  7  8  1  0
  7  9  1  0
  9 10  2  0
 10 11  1  0
 10 12  1  0
 12 13  2  0
 13  6  1  0
  1 14  1  0
  4 15  1  0
  5 16  1  0
  8 17  1  0
  9 18  1  0
 11 19  1  0
 12 20  1  0
 13 21  1  0
M  END
$$$$
