
     RDKit          3D

 18 18  0  0  0  0  0  0  0  0999 V2000
    0.8724   -0.2161   -0.6165 C   0  0  1  0  0  0  0  0  0  0  0  0
    1.2092   -0.1109   -1.9778 O   0  0  0  0  0  0  0  0  0  0  0  0
    1.9919    0.4041    0.2414 C   0  0  0  0  0  0  0  0  0  0  0  0
    1.9458   -0.1017    1.5464 O   0  0  0  0  0  0  0  0  0  0  0  0
   -0.5112    0.4307   -0.3693 C   0  0  1  0  0  0  0  0  0  0  0  0
   -1.4579   -0.0873   -1.3166 O   0  0  0  0  0  0  0  0  0  0  0  0
   -2.5046   -0.7449   -0.6830 C   0  0  0  0  0  0  0  0  0  0  0  0
   -3.4586   -1.2995   -1.2882 O   0  0  0  0  0  0  0  0  0  0  0  0
   -2.3368   -0.6879    0.7430 C   0  0  0  0  0  0  0  0  0  0  0  0
   -3.1061   -1.1629    1.6191 O   0  0  0  0  0  0  0  0  0  0  0  0
   -1.1170    0.0557    0.9619 C   0  0  0  0  0  0  0  0  0  0  0  0
   -0.6902    0.4157    2.0904 O   0  0  0  0  0  0  0  0  0  0  0  0
    0.8068   -1.3012   -0.3790 H   0  0  0  0  0  0  0  0  0  0  0  0
    1.2701    0.8564   -2.1967 H   0  0  0  0  0  0  0  0  0  0  0  0
    1.8976    1.5134    0.2548 H   0  0  0  0  0  0  0  0  0  0  0  0
    2.9774    0.1448   -0.2069 H   0  0  0  0  0  0  0  0  0  0  0  0
    2.6723    0.3547    2.0451 H   0  0  0  0  0  0  0  0  0  0  0  0
   -0.4609    1.5368   -0.4680 H   0  0  0  0  0  0  0  0  0  0  0  0
  1  2  1  0
  1  3  1  0
  3  4  1  0
  1  5  1  0
  5  6  1  0
  6  7  1  0
  7  8  2  0
  7  9  1  0
  9 10  2  0
  9 11  1  0
 11 12  2  0
 11  5  1  0
  1 13  1  1
  2 14  1  0
  3 15  1  0
  3 16  1  0
  4 17  1  0
  5 18  1  1
M  END
$$$$
