
     RDKit          3D

 67 71  0  0  0  0  0  0  0  0999 V2000
    7.7309   -1.5876    0.8258 C   0  0  0  0  0  0  0  0  0  0  0  0
    6.2717   -1.7674    0.4188 C   0  0  0  0  0  0  0  0  0  0  0  0
    5.3567   -1.8176    1.6462 C   0  0  0  0  0  0  0  0  0  0  0  0
    3.9968   -1.9993    1.2518 O   0  0  0  0  0  0  0  0  0  0  0  0
    3.1651   -1.0071    0.7074 C   0  0  0  0  0  0  0  0  0  0  0  0
    3.5659    0.3462    0.5833 C   0  0  0  0  0  0  0  0  0  0  0  0
    2.6974    1.2945    0.0242 C   0  0  0  0  0  0  0  0  0  0  0  0
    1.4228    0.8902   -0.3801 C   0  0  0  0  0  0  0  0  0  0  0  0
    0.3885    1.7287   -1.0493 C   0  0  1  0  0  0  0  0  0  0  0  0
   -0.8486    0.7904   -1.1259 C   0  0  2  0  0  0  0  0  0  0  0  0
   -0.3326   -0.6452   -0.8292 C   0  0  1  0  0  0  0  0  0  0  0  0
    1.0246   -0.4181   -0.2557 C   0  0  0  0  0  0  0  0  0  0  0  0
    1.8842   -1.3858    0.2729 C   0  0  0  0  0  0  0  0  0  0  0  0
   -1.2717   -1.3997    0.1012 C   0  0  0  0  0  0  0  0  0  0  0  0
   -1.2702   -1.1365    1.4841 C   0  0  0  0  0  0  0  0  0  0  0  0
   -2.1700   -1.7800    2.3319 C   0  0  0  0  0  0  0  0  0  0  0  0
   -3.1038   -2.6828    1.8223 C   0  0  0  0  0  0  0  0  0  0  0  0
   -3.9857   -3.3027    2.7207 O   0  0  0  0  0  0  0  0  0  0  0  0
   -4.9954   -4.2345    2.3464 C   0  0  0  0  0  0  0  0  0  0  0  0
   -3.1339   -2.9342    0.4386 C   0  0  0  0  0  0  0  0  0  0  0  0
   -2.2331   -2.2858   -0.4315 C   0  0  0  0  0  0  0  0  0  0  0  0
   -2.2565   -2.4947   -1.8234 O   0  0  0  0  0  0  0  0  0  0  0  0
   -3.2909   -3.1370   -2.5706 C   0  0  0  0  0  0  0  0  0  0  0  0
   -4.4547   -2.1805   -2.8362 C   0  0  0  0  0  0  0  0  0  0  0  0
   -5.1239   -1.8594   -1.6470 O   0  0  0  0  0  0  0  0  0  0  0  0
   -1.5395    0.8745   -2.4605 C   0  0  0  0  0  0  0  0  0  0  0  0
   -0.8608    0.5276   -3.6256 O   0  0  0  0  0  0  0  0  0  0  0  0
   -2.7370    1.2615   -2.5256 O   0  0  0  0  0  0  0  0  0  0  0  0
    0.0932    3.0069   -0.2894 C   0  0  0  0  0  0  0  0  0  0  0  0
   -0.1447    2.9883    1.1133 C   0  0  0  0  0  0  0  0  0  0  0  0
   -0.4430    4.1754    1.8053 C   0  0  0  0  0  0  0  0  0  0  0  0
   -0.5055    5.3556    1.0726 C   0  0  0  0  0  0  0  0  0  0  0  0
   -0.7804    6.6331    1.5209 O   0  0  0  0  0  0  0  0  0  0  0  0
   -0.7359    7.5175    0.3924 C   0  0  0  0  0  0  0  0  0  0  0  0
   -0.4210    6.6781   -0.7275 O   0  0  0  0  0  0  0  0  0  0  0  0
   -0.2909    5.3824   -0.2664 C   0  0  0  0  0  0  0  0  0  0  0  0
    0.0074    4.2316   -0.9899 C   0  0  0  0  0  0  0  0  0  0  0  0
    8.0604   -2.4336    1.4659 H   0  0  0  0  0  0  0  0  0  0  0  0
    7.8610   -0.6343    1.3812 H   0  0  0  0  0  0  0  0  0  0  0  0
    8.3693   -1.5597   -0.0823 H   0  0  0  0  0  0  0  0  0  0  0  0
    6.1678   -2.7137   -0.1548 H   0  0  0  0  0  0  0  0  0  0  0  0
    5.9777   -0.9272   -0.2446 H   0  0  0  0  0  0  0  0  0  0  0  0
    5.4641   -0.9054    2.2714 H   0  0  0  0  0  0  0  0  0  0  0  0
    5.6500   -2.6852    2.2748 H   0  0  0  0  0  0  0  0  0  0  0  0
    4.5435    0.6748    0.9048 H   0  0  0  0  0  0  0  0  0  0  0  0
    3.0118    2.3239   -0.0915 H   0  0  0  0  0  0  0  0  0  0  0  0
    0.7712    1.9637   -2.0683 H   0  0  0  0  0  0  0  0  0  0  0  0
   -1.5807    1.0834   -0.3372 H   0  0  0  0  0  0  0  0  0  0  0  0
   -0.1743   -1.2144   -1.7717 H   0  0  0  0  0  0  0  0  0  0  0  0
    1.5654   -2.4181    0.3442 H   0  0  0  0  0  0  0  0  0  0  0  0
   -0.5733   -0.4265    1.9101 H   0  0  0  0  0  0  0  0  0  0  0  0
   -2.1462   -1.5698    3.3937 H   0  0  0  0  0  0  0  0  0  0  0  0
   -5.7163   -3.7570    1.6494 H   0  0  0  0  0  0  0  0  0  0  0  0
   -5.5425   -4.5603    3.2546 H   0  0  0  0  0  0  0  0  0  0  0  0
   -4.5351   -5.1258    1.8701 H   0  0  0  0  0  0  0  0  0  0  0  0
   -3.8609   -3.6262    0.0471 H   0  0  0  0  0  0  0  0  0  0  0  0
   -2.8644   -3.4304   -3.5529 H   0  0  0  0  0  0  0  0  0  0  0  0
   -3.6331   -4.0730   -2.0841 H   0  0  0  0  0  0  0  0  0  0  0  0
   -4.0831   -1.2631   -3.3491 H   0  0  0  0  0  0  0  0  0  0  0  0
   -5.1750   -2.6774   -3.5197 H   0  0  0  0  0  0  0  0  0  0  0  0
   -4.6914   -1.0423   -1.2850 H   0  0  0  0  0  0  0  0  0  0  0  0
   -1.3185    0.5777   -4.5277 H   0  0  0  0  0  0  0  0  0  0  0  0
   -0.0998    2.0576    1.6637 H   0  0  0  0  0  0  0  0  0  0  0  0
   -0.6221    4.1710    2.8723 H   0  0  0  0  0  0  0  0  0  0  0  0
   -1.7251    7.9992    0.2439 H   0  0  0  0  0  0  0  0  0  0  0  0
    0.0582    8.2803    0.5346 H   0  0  0  0  0  0  0  0  0  0  0  0
    0.1659    4.2854   -2.0594 H   0  0  0  0  0  0  0  0  0  0  0  0
  1  2  1  0
  2  3  1  0
  3  4  1  0
  4  5  1  0
  5  6  2  0
  6  7  1  0
  7  8  2  0
  8  9  1  0
  9 10  1  0
 10 11  1  0
 11 12  1  0
 12 13  2  0
 11 14  1  0
 14 15  2  0
 15 16  1  0
 16 17  2  0
 17 18  1  0
 18 19  1  0
 17 20  1  0
 20 21  2  0
 21 22  1  0
 22 23  1  0
 23 24  1  0
 24 25  1  0
 10 26  1  0
 26 27  1  0
 26 28  2  0
  9 29  1  0
 29 30  2  0
 30 31  1  0
 31 32  2  0
 32 33  1  0
 33 34  1  0
 34 35  1  0
 35 36  1  0
 36 37  2  0
 13  5  1  0
 21 14  1  0
 37 29  1  0
 12  8  1  0
 36 32  1  0
  1 38  1  0
  1 39  1  0
  1 40  1  0
  2 41  1  0
  2 42  1  0
  3 43  1  0
  3 44  1  0
  6 45  1  0
  7 46  1  0
  9 47  1  6
 10 48  1  1
 11 49  1  6
 13 50  1  0
 15 51  1  0
 16 52  1  0
 19 53  1  0
 19 54  1  0
 19 55  1  0
 20 56  1  0
 23 57  1  0
 23 58  1  0
 24 59  1  0
 24 60  1  0
 25 61  1  0
 27 62  1  0
 30 63  1  0
 31 64  1  0
 34 65  1  0
 34 66  1  0
 37 67  1  0
M  END
$$$$
