
     RDKit          3D

 41 43  0  0  0  0  0  0  0  0999 V2000
   -2.7888   -0.6501   -0.1769 C   0  0  1  0  0  0  0  0  0  0  0  0
   -2.6843   -0.1334   -1.5565 N   0  0  0  0  0  0  0  0  0  0  0  0
   -1.4059   -0.9321   -2.4298 S   0  0  0  0  0  6  0  0  0  0  0  0
   -1.6925   -2.4055   -2.5187 O   0  0  0  0  0  0  0  0  0  0  0  0
   -1.3359   -0.3743   -3.8232 O   0  0  0  0  0  0  0  0  0  0  0  0
    0.1397   -0.6554   -1.6290 C   0  0  0  0  0  0  0  0  0  0  0  0
    0.6196    0.6583   -1.4909 C   0  0  0  0  0  0  0  0  0  0  0  0
    1.8241    0.8594   -0.8233 C   0  0  0  0  0  0  0  0  0  0  0  0
    2.5596   -0.1981   -0.2939 C   0  0  0  0  0  0  0  0  0  0  0  0
    2.0911   -1.5108   -0.4261 C   0  0  0  0  0  0  0  0  0  0  0  0
    0.8764   -1.7347   -1.0945 C   0  0  0  0  0  0  0  0  0  0  0  0
    3.7368    0.2306    0.3398 C   0  0  0  0  0  0  0  0  0  0  0  0
    4.7022   -0.5618    0.9752 C   0  0  0  0  0  0  0  0  0  0  0  0
    5.8183    0.0641    1.5550 C   0  0  0  0  0  0  0  0  0  0  0  0
    5.9635    1.4631    1.4983 C   0  0  0  0  0  0  0  0  0  0  0  0
    4.9941    2.2516    0.8612 C   0  0  0  0  0  0  0  0  0  0  0  0
    3.8942    1.6146    0.2917 C   0  0  0  0  0  0  0  0  0  0  0  0
    2.6000    2.3270   -0.5231 S   0  0  0  0  0  0  0  0  0  0  0  0
   -3.5026    0.3535    0.7776 C   0  0  0  0  0  0  0  0  0  0  0  0
   -4.8338    0.8776    0.2138 C   0  0  0  0  0  0  0  0  0  0  0  0
   -2.5857    1.5267    1.1616 C   0  0  0  0  0  0  0  0  0  0  0  0
   -3.5159   -1.9694   -0.1712 C   0  0  0  0  0  0  0  0  0  0  0  0
   -3.1646   -2.9439    0.7577 O   0  0  0  0  0  0  0  0  0  0  0  0
   -4.4612   -2.1846   -0.9774 O   0  0  0  0  0  0  0  0  0  0  0  0
   -1.7745   -0.8353    0.2414 H   0  0  0  0  0  0  0  0  0  0  0  0
   -2.4175    0.8754   -1.5369 H   0  0  0  0  0  0  0  0  0  0  0  0
    0.0653    1.4999   -1.8865 H   0  0  0  0  0  0  0  0  0  0  0  0
    2.6420   -2.3488   -0.0211 H   0  0  0  0  0  0  0  0  0  0  0  0
    0.5089   -2.7481   -1.1878 H   0  0  0  0  0  0  0  0  0  0  0  0
    4.6037   -1.6376    1.0265 H   0  0  0  0  0  0  0  0  0  0  0  0
    6.5726   -0.5343    2.0493 H   0  0  0  0  0  0  0  0  0  0  0  0
    6.8279    1.9333    1.9489 H   0  0  0  0  0  0  0  0  0  0  0  0
    5.0994    3.3277    0.8144 H   0  0  0  0  0  0  0  0  0  0  0  0
   -3.7332   -0.1824    1.7265 H   0  0  0  0  0  0  0  0  0  0  0  0
   -5.3278    1.5367    0.9593 H   0  0  0  0  0  0  0  0  0  0  0  0
   -4.6728    1.4615   -0.7168 H   0  0  0  0  0  0  0  0  0  0  0  0
   -5.5248    0.0370   -0.0024 H   0  0  0  0  0  0  0  0  0  0  0  0
   -3.0663    2.1368    1.9560 H   0  0  0  0  0  0  0  0  0  0  0  0
   -1.6196    1.1500    1.5601 H   0  0  0  0  0  0  0  0  0  0  0  0
   -2.3827    2.1885    0.2945 H   0  0  0  0  0  0  0  0  0  0  0  0
   -3.6492   -3.8330    0.7863 H   0  0  0  0  0  0  0  0  0  0  0  0
  1  2  1  0
  2  3  1  0
  3  4  2  0
  3  5  2  0
  3  6  1  0
  6  7  2  0
  7  8  1  0
  8  9  2  0
  9 10  1  0
 10 11  2  0
  9 12  1  0
 12 13  2  0
 13 14  1  0
 14 15  2  0
 15 16  1  0
 16 17  2  0
 17 18  1  0
  1 19  1  0
 19 20  1  0
 19 21  1  0
  1 22  1  0
 22 23  1  0
 22 24  2  0
 11  6  1  0
 17 12  1  0
 18  8  1  0
  1 25  1  1
  2 26  1  0
  7 27  1  0
 10 28  1  0
 11 29  1  0
 13 30  1  0
 14 31  1  0
 15 32  1  0
 16 33  1  0
 19 34  1  0
 20 35  1  0
 20 36  1  0
 20 37  1  0
 21 38  1  0
 21 39  1  0
 21 40  1  0
 23 41  1  0
M  END
$$$$
