
     RDKit          3D

 44 44  0  0  0  0  0  0  0  0999 V2000
    7.5448   -0.0823   -0.6034 C   0  0  0  0  0  0  0  0  0  0  0  0
    6.9349   -0.6467    0.5367 O   0  0  0  0  0  0  0  0  0  0  0  0
    5.6187   -0.1493    0.6903 C   0  0  0  0  0  0  0  0  0  0  0  0
    4.6095   -1.1346    0.0945 C   0  0  0  0  0  0  0  0  0  0  0  0
    3.2006   -0.6521    0.3143 C   0  0  0  0  0  0  0  0  0  0  0  0
    2.5936    0.2067   -0.6145 C   0  0  0  0  0  0  0  0  0  0  0  0
    1.2968    0.6815   -0.3966 C   0  0  0  0  0  0  0  0  0  0  0  0
    0.5886    0.3067    0.7619 C   0  0  0  0  0  0  0  0  0  0  0  0
   -0.7160    0.7498    1.0340 O   0  0  0  0  0  0  0  0  0  0  0  0
   -1.5559    1.4727    0.1319 C   0  0  0  0  0  0  0  0  0  0  0  0
   -2.0970    0.5632   -0.9845 C   0  0  0  0  0  0  0  0  0  0  0  0
   -2.9789    1.2958   -1.7943 O   0  0  0  0  0  0  0  0  0  0  0  0
   -2.7671   -0.7372   -0.4630 C   0  0  0  0  0  0  0  0  0  0  0  0
   -3.7486   -0.5589    0.6265 N   0  0  0  0  0  0  0  0  0  0  0  0
   -4.9546    0.2214    0.2826 C   0  0  0  0  0  0  0  0  0  0  0  0
   -5.8149    0.3994    1.5402 C   0  0  0  0  0  0  0  0  0  0  0  0
   -5.7855   -0.4771   -0.8055 C   0  0  0  0  0  0  0  0  0  0  0  0
    1.2060   -0.5345    1.6948 C   0  0  0  0  0  0  0  0  0  0  0  0
    2.5023   -1.0092    1.4774 C   0  0  0  0  0  0  0  0  0  0  0  0
    7.7130    1.0080   -0.4612 H   0  0  0  0  0  0  0  0  0  0  0  0
    6.9447   -0.2654   -1.5221 H   0  0  0  0  0  0  0  0  0  0  0  0
    8.5355   -0.5599   -0.7480 H   0  0  0  0  0  0  0  0  0  0  0  0
    5.4193   -0.0549    1.7795 H   0  0  0  0  0  0  0  0  0  0  0  0
    5.4719    0.8689    0.2548 H   0  0  0  0  0  0  0  0  0  0  0  0
    4.7467   -2.1332    0.5644 H   0  0  0  0  0  0  0  0  0  0  0  0
    4.7987   -1.2556   -0.9939 H   0  0  0  0  0  0  0  0  0  0  0  0
    3.1269    0.5115   -1.5066 H   0  0  0  0  0  0  0  0  0  0  0  0
    0.8636    1.3443   -1.1314 H   0  0  0  0  0  0  0  0  0  0  0  0
   -1.0082    2.3370   -0.2999 H   0  0  0  0  0  0  0  0  0  0  0  0
   -2.4030    1.9007    0.7069 H   0  0  0  0  0  0  0  0  0  0  0  0
   -1.2282    0.2526   -1.6086 H   0  0  0  0  0  0  0  0  0  0  0  0
   -3.0764    0.7933   -2.6453 H   0  0  0  0  0  0  0  0  0  0  0  0
   -3.2224   -1.2946   -1.3074 H   0  0  0  0  0  0  0  0  0  0  0  0
   -1.9621   -1.4039   -0.0837 H   0  0  0  0  0  0  0  0  0  0  0  0
   -3.2692   -0.1341    1.4536 H   0  0  0  0  0  0  0  0  0  0  0  0
   -4.6792    1.2390   -0.0624 H   0  0  0  0  0  0  0  0  0  0  0  0
   -5.2415    0.9414    2.3223 H   0  0  0  0  0  0  0  0  0  0  0  0
   -6.7234    0.9958    1.3087 H   0  0  0  0  0  0  0  0  0  0  0  0
   -6.1232   -0.5891    1.9435 H   0  0  0  0  0  0  0  0  0  0  0  0
   -5.9619   -1.5405   -0.5363 H   0  0  0  0  0  0  0  0  0  0  0  0
   -5.2704   -0.4286   -1.7863 H   0  0  0  0  0  0  0  0  0  0  0  0
   -6.7668    0.0289   -0.9303 H   0  0  0  0  0  0  0  0  0  0  0  0
    0.6764   -0.8228    2.5940 H   0  0  0  0  0  0  0  0  0  0  0  0
    2.9620   -1.6541    2.2162 H   0  0  0  0  0  0  0  0  0  0  0  0
  1  2  1  0
  2  3  1  0
  3  4  1  0
  4  5  1  0
  5  6  2  0
  6  7  1  0
  7  8  2  0
  8  9  1  0
  9 10  1  0
 10 11  1  0
 11 12  1  0
 11 13  1  0
 13 14  1  0
 14 15  1  0
 15 16  1  0
 15 17  1  0
  8 18  1  0
 18 19  2  0
 19  5  1  0
  1 20  1  0
  1 21  1  0
  1 22  1  0
  3 23  1  0
  3 24  1  0
  4 25  1  0
  4 26  1  0
  6 27  1  0
  7 28  1  0
 10 29  1  0
 10 30  1  0
 11 31  1  0
 12 32  1  0
 13 33  1  0
 13 34  1  0
 14 35  1  0
 15 36  1  0
 16 37  1  0
 16 38  1  0
 16 39  1  0
 17 40  1  0
 17 41  1  0
 17 42  1  0
 18 43  1  0
 19 44  1  0
M  END
$$$$
