
     RDKit          3D

 33 34  0  0  0  0  0  0  0  0999 V2000
   -1.2439    1.8622   -2.0166 C   0  0  0  0  0  0  0  0  0  0  0  0
   -2.1948    0.6608   -1.8724 C   0  0  2  0  0  0  0  0  0  0  0  0
   -3.6372    1.1362   -2.1516 C   0  0  0  0  0  0  0  0  0  0  0  0
   -4.6289    0.1002   -1.7434 C   0  0  0  0  0  0  0  0  0  0  0  0
   -5.7296   -0.0098   -2.3458 O   0  0  0  0  0  0  0  0  0  0  0  0
   -4.3472   -0.7057   -0.6026 N   0  0  0  0  0  0  0  0  0  0  0  0
   -3.0842   -0.6551    0.0097 N   0  0  0  0  0  0  0  0  0  0  0  0
   -2.0723   -0.0144   -0.5043 C   0  0  0  0  0  0  0  0  0  0  0  0
   -0.7692   -0.1369    0.1847 C   0  0  0  0  0  0  0  0  0  0  0  0
    0.3676   -0.5920   -0.5020 C   0  0  0  0  0  0  0  0  0  0  0  0
    1.5893   -0.7272    0.1638 C   0  0  0  0  0  0  0  0  0  0  0  0
    1.6903   -0.4213    1.5323 C   0  0  0  0  0  0  0  0  0  0  0  0
    2.9363   -0.5534    2.2334 N   0  0  0  0  0  0  0  0  0  0  0  0
    4.0985   -0.9876    1.5682 N   0  0  0  0  0  0  0  0  0  0  0  0
    5.2570   -1.1284    2.1410 C   0  0  0  0  0  0  0  0  0  0  0  0
    5.4637   -0.8470    3.5400 C   0  0  0  0  0  0  0  0  0  0  0  0
    5.6302   -0.6214    4.6629 N   0  0  0  0  0  0  0  0  0  0  0  0
    6.3720   -1.5792    1.3576 C   0  0  0  0  0  0  0  0  0  0  0  0
    7.2708   -1.9428    0.7257 N   0  0  0  0  0  0  0  0  0  0  0  0
    0.5484    0.0146    2.2210 C   0  0  0  0  0  0  0  0  0  0  0  0
   -0.6730    0.1495    1.5548 C   0  0  0  0  0  0  0  0  0  0  0  0
   -1.4315    2.3884   -2.9772 H   0  0  0  0  0  0  0  0  0  0  0  0
   -0.1843    1.5379   -2.0265 H   0  0  0  0  0  0  0  0  0  0  0  0
   -1.3941    2.5803   -1.1818 H   0  0  0  0  0  0  0  0  0  0  0  0
   -1.9240   -0.0914   -2.6458 H   0  0  0  0  0  0  0  0  0  0  0  0
   -3.7540    1.3632   -3.2341 H   0  0  0  0  0  0  0  0  0  0  0  0
   -3.8549    2.0611   -1.5738 H   0  0  0  0  0  0  0  0  0  0  0  0
   -5.0842   -1.3309   -0.2076 H   0  0  0  0  0  0  0  0  0  0  0  0
    0.3074   -0.8524   -1.5515 H   0  0  0  0  0  0  0  0  0  0  0  0
    2.4503   -1.0757   -0.3914 H   0  0  0  0  0  0  0  0  0  0  0  0
    2.9637   -0.3184    3.2516 H   0  0  0  0  0  0  0  0  0  0  0  0
    0.6042    0.2493    3.2766 H   0  0  0  0  0  0  0  0  0  0  0  0
   -1.5422    0.4874    2.1059 H   0  0  0  0  0  0  0  0  0  0  0  0
  1  2  1  0
  2  3  1  0
  3  4  1  0
  4  5  2  0
  4  6  1  0
  6  7  1  0
  7  8  2  0
  8  9  1  0
  9 10  2  0
 10 11  1  0
 11 12  2  0
 12 13  1  0
 13 14  1  0
 14 15  2  3
 15 16  1  0
 16 17  3  0
 15 18  1  0
 18 19  3  0
 12 20  1  0
 20 21  2  0
  8  2  1  0
 21  9  1  0
  1 22  1  0
  1 23  1  0
  1 24  1  0
  2 25  1  6
  3 26  1  0
  3 27  1  0
  6 28  1  0
 10 29  1  0
 11 30  1  0
 13 31  1  0
 20 32  1  0
 21 33  1  0
M  END
$$$$
