
     RDKit          3D

 42 44  0  0  0  0  0  0  0  0999 V2000
    3.7191    1.5585   -2.0893 O   0  0  0  0  0  0  0  0  0  0  0  0
    4.9536    1.6857   -1.4597 C   0  0  0  0  0  0  0  0  0  0  0  0
    5.6092    2.7536   -1.5908 O   0  0  0  0  0  0  0  0  0  0  0  0
    5.5283    0.5683   -0.6860 C   0  0  0  0  0  0  0  0  0  0  0  0
    4.8867   -0.5171   -0.2466 C   0  0  0  0  0  0  0  0  0  0  0  0
    5.8552   -1.4362    0.3264 C   0  0  0  0  0  0  0  0  0  0  0  0
    7.0585   -0.8943    0.2548 C   0  0  0  0  0  0  0  0  0  0  0  0
    6.9916    0.4505   -0.3888 C   0  0  0  0  0  0  0  0  0  0  0  0
    3.4383   -0.7823   -0.2809 C   0  0  0  0  0  0  0  0  0  0  0  0
    3.0356   -1.9183   -0.6497 O   0  0  0  0  0  0  0  0  0  0  0  0
    2.5000    0.2225    0.1381 N   0  0  0  0  0  0  0  0  0  0  0  0
    1.0785    0.0202    0.1410 C   0  0  0  0  0  0  0  0  0  0  0  0
    0.2434    0.9840   -0.4419 C   0  0  0  0  0  0  0  0  0  0  0  0
    0.7803    2.0796   -1.0362 F   0  0  0  0  0  0  0  0  0  0  0  0
   -1.1447    0.8145   -0.4387 C   0  0  0  0  0  0  0  0  0  0  0  0
   -1.9238    1.7422   -1.0519 F   0  0  0  0  0  0  0  0  0  0  0  0
   -1.7213   -0.3182    0.1656 C   0  0  0  0  0  0  0  0  0  0  0  0
   -0.8834   -1.2705    0.7753 C   0  0  0  0  0  0  0  0  0  0  0  0
   -1.4123   -2.3460    1.4135 F   0  0  0  0  0  0  0  0  0  0  0  0
    0.5049   -1.0985    0.7702 C   0  0  0  0  0  0  0  0  0  0  0  0
    1.2837   -1.9955    1.4263 F   0  0  0  0  0  0  0  0  0  0  0  0
   -3.1922   -0.5009    0.1702 C   0  0  0  0  0  0  0  0  0  0  0  0
   -4.0361    0.5269    0.6253 C   0  0  0  0  0  0  0  0  0  0  0  0
   -5.4273    0.3636    0.6338 C   0  0  0  0  0  0  0  0  0  0  0  0
   -6.2156    1.4270    1.1026 O   0  0  0  0  0  0  0  0  0  0  0  0
   -7.6396    1.4264    1.1783 C   0  0  0  0  0  0  0  0  0  0  0  0
   -8.1840    1.2582   -0.0823 F   0  0  0  0  0  0  0  0  0  0  0  0
   -8.0618    2.6392    1.6873 F   0  0  0  0  0  0  0  0  0  0  0  0
   -8.0721    0.4157    2.0180 F   0  0  0  0  0  0  0  0  0  0  0  0
   -5.9788   -0.8492    0.1778 C   0  0  0  0  0  0  0  0  0  0  0  0
   -5.1451   -1.8744   -0.2751 C   0  0  0  0  0  0  0  0  0  0  0  0
   -3.7592   -1.7040   -0.2795 C   0  0  0  0  0  0  0  0  0  0  0  0
    3.3305    2.3204   -2.6320 H   0  0  0  0  0  0  0  0  0  0  0  0
    5.6370   -2.4042    0.7583 H   0  0  0  0  0  0  0  0  0  0  0  0
    7.9614   -1.3664    0.6188 H   0  0  0  0  0  0  0  0  0  0  0  0
    7.3188    1.2418    0.3184 H   0  0  0  0  0  0  0  0  0  0  0  0
    7.5907    0.4658   -1.3239 H   0  0  0  0  0  0  0  0  0  0  0  0
    2.8561    1.1773    0.3687 H   0  0  0  0  0  0  0  0  0  0  0  0
   -3.6128    1.4557    0.9883 H   0  0  0  0  0  0  0  0  0  0  0  0
   -7.0470   -1.0123    0.1683 H   0  0  0  0  0  0  0  0  0  0  0  0
   -5.5748   -2.8037   -0.6265 H   0  0  0  0  0  0  0  0  0  0  0  0
   -3.1296   -2.5057   -0.6456 H   0  0  0  0  0  0  0  0  0  0  0  0
  1  2  1  0
  2  3  2  0
  2  4  1  0
  4  5  2  0
  5  6  1  0
  6  7  2  0
  7  8  1  0
  5  9  1  0
  9 10  2  0
  9 11  1  0
 11 12  1  0
 12 13  2  0
 13 14  1  0
 13 15  1  0
 15 16  1  0
 15 17  2  0
 17 18  1  0
 18 19  1  0
 18 20  2  0
 20 21  1  0
 17 22  1  0
 22 23  2  0
 23 24  1  0
 24 25  1  0
 25 26  1  0
 26 27  1  0
 26 28  1  0
 26 29  1  0
 24 30  2  0
 30 31  1  0
 31 32  2  0
  8  4  1  0
 20 12  1  0
 32 22  1  0
  1 33  1  0
  6 34  1  0
  7 35  1  0
  8 36  1  0
  8 37  1  0
 11 38  1  0
 23 39  1  0
 30 40  1  0
 31 41  1  0
 32 42  1  0
M  END
$$$$
