
     RDKit          3D

 23 23  0  0  0  0  0  0  0  0999 V2000
    3.6650    0.9767    0.3213 C   0  0  0  0  0  0  0  0  0  0  0  0
    2.7686    0.3257   -1.0694 S   0  0  0  0  0  6  0  0  0  0  0  0
    3.3950   -0.9673   -1.5109 O   0  0  0  0  0  0  0  0  0  0  0  0
    2.8284    1.3041   -2.2089 O   0  0  0  0  0  0  0  0  0  0  0  0
    1.0926    0.0497   -0.6071 C   0  0  0  0  0  0  0  0  0  0  0  0
    0.1433    1.0680   -0.7574 C   0  0  0  0  0  0  0  0  0  0  0  0
   -1.1852    0.8546   -0.3784 C   0  0  0  0  0  0  0  0  0  0  0  0
   -1.5824   -0.3795    0.1653 C   0  0  0  0  0  0  0  0  0  0  0  0
   -0.6222   -1.3962    0.3189 C   0  0  0  0  0  0  0  0  0  0  0  0
    0.7055   -1.1806   -0.0621 C   0  0  0  0  0  0  0  0  0  0  0  0
   -2.9956   -0.6009    0.5628 C   0  0  0  0  0  0  0  0  0  0  0  0
   -4.0574   -0.0284   -0.2051 N   0  0  0  0  0  0  0  0  0  0  0  0
   -3.2910   -1.3047    1.6117 N   0  0  0  0  0  0  0  0  0  0  0  0
    4.7221    1.1520    0.0335 H   0  0  0  0  0  0  0  0  0  0  0  0
    3.6264    0.2510    1.1598 H   0  0  0  0  0  0  0  0  0  0  0  0
    3.2064    1.9347    0.6424 H   0  0  0  0  0  0  0  0  0  0  0  0
    0.4315    2.0297   -1.1624 H   0  0  0  0  0  0  0  0  0  0  0  0
   -1.8963    1.6631   -0.4910 H   0  0  0  0  0  0  0  0  0  0  0  0
   -0.8993   -2.3645    0.7158 H   0  0  0  0  0  0  0  0  0  0  0  0
    1.4301   -1.9745    0.0670 H   0  0  0  0  0  0  0  0  0  0  0  0
   -3.8685    0.4694   -1.1030 H   0  0  0  0  0  0  0  0  0  0  0  0
   -5.0500   -0.1481    0.0967 H   0  0  0  0  0  0  0  0  0  0  0  0
   -2.5669   -1.7339    2.2296 H   0  0  0  0  0  0  0  0  0  0  0  0
  1  2  1  0
  2  3  2  0
  2  4  2  0
  2  5  1  0
  5  6  2  0
  6  7  1  0
  7  8  2  0
  8  9  1  0
  9 10  2  0
  8 11  1  0
 11 12  1  0
 11 13  2  3
 10  5  1  0
  1 14  1  0
  1 15  1  0
  1 16  1  0
  6 17  1  0
  7 18  1  0
  9 19  1  0
 10 20  1  0
 12 21  1  0
 12 22  1  0
 13 23  1  0
M  END
$$$$
