
     RDKit          3D

 59 63  0  0  0  0  0  0  0  0999 V2000
    2.1766   -3.1769   -0.6395 O   0  0  0  0  0  0  0  0  0  0  0  0
    1.8960   -2.1416    0.0244 C   0  0  0  0  0  0  0  0  0  0  0  0
    2.9524   -1.3094    0.5392 N   0  0  0  0  0  0  0  0  0  0  0  0
    4.3504   -1.5872    0.3467 C   0  0  0  0  0  0  0  0  0  0  0  0
    5.2361   -0.5344    0.0540 C   0  0  0  0  0  0  0  0  0  0  0  0
    4.7691    0.7049   -0.0804 O   0  0  0  0  0  0  0  0  0  0  0  0
    5.5456    1.7475   -0.3632 C   0  0  0  0  0  0  0  0  0  0  0  0
    6.9252    1.5674   -0.5358 C   0  0  0  0  0  0  0  0  0  0  0  0
    7.4654    0.2875   -0.4070 C   0  0  0  0  0  0  0  0  0  0  0  0
    8.7055    0.1178   -0.5613 O   0  0  0  0  0  0  0  0  0  0  0  0
    6.6179   -0.7918   -0.1070 C   0  0  0  0  0  0  0  0  0  0  0  0
    7.1007   -2.1036    0.0367 C   0  0  0  0  0  0  0  0  0  0  0  0
    6.2212   -3.1427    0.3459 C   0  0  0  0  0  0  0  0  0  0  0  0
    4.8573   -2.8885    0.5070 C   0  0  0  0  0  0  0  0  0  0  0  0
    4.9322    3.0779   -0.4903 C   0  0  0  0  0  0  0  0  0  0  0  0
    5.6042    4.2110   -0.7727 N   0  0  0  0  0  0  0  0  0  0  0  0
    4.6662    5.1418   -0.7876 N   0  0  0  0  0  0  0  0  0  0  0  0
    3.4805    4.6179   -0.5296 N   0  0  0  0  0  0  0  0  0  0  0  0
    3.6145    3.3157   -0.3371 N   0  0  0  0  0  0  0  0  0  0  0  0
    0.4713   -1.7999    0.2516 C   0  0  0  0  0  0  0  0  0  0  0  0
   -0.4920   -2.8220    0.3059 C   0  0  0  0  0  0  0  0  0  0  0  0
   -1.8410   -2.5193    0.5125 C   0  0  0  0  0  0  0  0  0  0  0  0
   -2.2537   -1.1823    0.6552 C   0  0  0  0  0  0  0  0  0  0  0  0
   -3.5931   -0.8175    0.8585 O   0  0  0  0  0  0  0  0  0  0  0  0
   -4.7205   -1.6887    0.7568 C   0  0  0  0  0  0  0  0  0  0  0  0
   -5.0160   -2.0867   -0.6981 C   0  0  0  0  0  0  0  0  0  0  0  0
   -4.9016   -0.9372   -1.7168 C   0  0  0  0  0  0  0  0  0  0  0  0
   -5.9400    0.1864   -1.5280 C   0  0  0  0  0  0  0  0  0  0  0  0
   -5.5137    1.2189   -0.5119 C   0  0  0  0  0  0  0  0  0  0  0  0
   -4.3708    2.0074   -0.7367 C   0  0  0  0  0  0  0  0  0  0  0  0
   -3.9722    2.9586    0.2070 C   0  0  0  0  0  0  0  0  0  0  0  0
   -4.7181    3.1427    1.3738 C   0  0  0  0  0  0  0  0  0  0  0  0
   -5.8685    2.3813    1.5950 C   0  0  0  0  0  0  0  0  0  0  0  0
   -6.2704    1.4281    0.6543 C   0  0  0  0  0  0  0  0  0  0  0  0
   -1.2971   -0.1643    0.5949 C   0  0  0  0  0  0  0  0  0  0  0  0
    0.0520   -0.4647    0.3891 C   0  0  0  0  0  0  0  0  0  0  0  0
    2.7075   -0.4249    1.0359 H   0  0  0  0  0  0  0  0  0  0  0  0
    7.5708    2.4065   -0.7668 H   0  0  0  0  0  0  0  0  0  0  0  0
    8.1541   -2.3261   -0.0809 H   0  0  0  0  0  0  0  0  0  0  0  0
    6.5997   -4.1491    0.4710 H   0  0  0  0  0  0  0  0  0  0  0  0
    4.2032   -3.7050    0.7829 H   0  0  0  0  0  0  0  0  0  0  0  0
    4.8384    6.1534   -0.9774 H   0  0  0  0  0  0  0  0  0  0  0  0
   -0.1989   -3.8597    0.2027 H   0  0  0  0  0  0  0  0  0  0  0  0
   -2.5484   -3.3339    0.5669 H   0  0  0  0  0  0  0  0  0  0  0  0
   -5.6057   -1.1682    1.1727 H   0  0  0  0  0  0  0  0  0  0  0  0
   -4.5708   -2.5932    1.3836 H   0  0  0  0  0  0  0  0  0  0  0  0
   -4.3048   -2.8836   -1.0019 H   0  0  0  0  0  0  0  0  0  0  0  0
   -6.0341   -2.5297   -0.7516 H   0  0  0  0  0  0  0  0  0  0  0  0
   -3.8669   -0.5336   -1.7273 H   0  0  0  0  0  0  0  0  0  0  0  0
   -5.0668   -1.3786   -2.7239 H   0  0  0  0  0  0  0  0  0  0  0  0
   -6.0766    0.7073   -2.5006 H   0  0  0  0  0  0  0  0  0  0  0  0
   -6.9271   -0.2533   -1.2653 H   0  0  0  0  0  0  0  0  0  0  0  0
   -3.7865    1.8831   -1.6398 H   0  0  0  0  0  0  0  0  0  0  0  0
   -3.0854    3.5541    0.0328 H   0  0  0  0  0  0  0  0  0  0  0  0
   -4.4080    3.8793    2.1036 H   0  0  0  0  0  0  0  0  0  0  0  0
   -6.4496    2.5300    2.4958 H   0  0  0  0  0  0  0  0  0  0  0  0
   -7.1652    0.8476    0.8411 H   0  0  0  0  0  0  0  0  0  0  0  0
   -1.6044    0.8693    0.6942 H   0  0  0  0  0  0  0  0  0  0  0  0
    0.7538    0.3542    0.3089 H   0  0  0  0  0  0  0  0  0  0  0  0
  1  2  2  0
  2  3  1  0
  3  4  1  0
  4  5  2  0
  5  6  1  0
  6  7  1  0
  7  8  2  0
  8  9  1  0
  9 10  2  0
  9 11  1  0
 11 12  2  0
 12 13  1  0
 13 14  2  0
  7 15  1  0
 15 16  2  0
 16 17  1  0
 17 18  1  0
 18 19  2  0
  2 20  1  0
 20 21  2  0
 21 22  1  0
 22 23  2  0
 23 24  1  0
 24 25  1  0
 25 26  1  0
 26 27  1  0
 27 28  1  0
 28 29  1  0
 29 30  2  0
 30 31  1  0
 31 32  2  0
 32 33  1  0
 33 34  2  0
 23 35  1  0
 35 36  2  0
 14  4  1  0
 19 15  1  0
 36 20  1  0
 11  5  1  0
 34 29  1  0
  3 37  1  0
  8 38  1  0
 12 39  1  0
 13 40  1  0
 14 41  1  0
 17 42  1  0
 21 43  1  0
 22 44  1  0
 25 45  1  0
 25 46  1  0
 26 47  1  0
 26 48  1  0
 27 49  1  0
 27 50  1  0
 28 51  1  0
 28 52  1  0
 30 53  1  0
 31 54  1  0
 32 55  1  0
 33 56  1  0
 34 57  1  0
 35 58  1  0
 36 59  1  0
M  END
$$$$
