
     RDKit          3D

 44 45  0  0  0  0  0  0  0  0999 V2000
   -3.7733   -1.0672   -0.0187 C   0  0  1  0  0  0  0  0  0  0  0  0
   -3.6927   -1.9919   -1.0769 O   0  0  0  0  0  0  0  0  0  0  0  0
   -2.8281   -1.4487    1.1275 C   0  0  0  0  0  0  0  0  0  0  0  0
   -1.7730   -0.3358    1.2167 C   0  0  1  0  0  0  0  0  0  0  0  0
   -0.3843   -0.8725    1.4981 C   0  0  0  0  0  0  0  0  0  0  0  0
    0.2629   -1.7144    0.6752 C   0  0  0  0  0  0  0  0  0  0  0  0
    1.6007   -2.2953    1.0480 C   0  0  0  0  0  0  0  0  0  0  0  0
    2.7512   -1.2747    0.9582 C   0  0  0  0  0  0  0  0  0  0  0  0
    3.2051   -0.9903   -0.4884 C   0  0  0  0  0  0  0  0  0  0  0  0
    2.4677    0.2015   -1.1201 C   0  0  2  0  0  0  0  0  0  0  0  0
    2.7269    0.2513   -2.6283 C   0  0  0  0  0  0  0  0  0  0  0  0
    2.9269    1.4179   -0.5188 O   0  0  0  0  0  0  0  0  0  0  0  0
    2.2572    2.6429   -0.6389 C   0  0  0  0  0  0  0  0  0  0  0  0
    2.9263    3.7079   -0.6752 O   0  0  0  0  0  0  0  0  0  0  0  0
    0.7928    2.7138   -0.7291 C   0  0  0  0  0  0  0  0  0  0  0  0
    0.0276    2.0778    0.1655 C   0  0  0  0  0  0  0  0  0  0  0  0
   -1.4777    1.9704    0.0670 C   0  0  1  0  0  0  0  0  0  0  0  0
   -1.9674    2.7081   -1.0270 O   0  0  0  0  0  0  0  0  0  0  0  0
   -1.8919    0.4826   -0.0861 C   0  0  2  0  0  0  0  0  0  0  0  0
   -3.3620    0.3321   -0.4764 C   0  0  0  0  0  0  0  0  0  0  0  0
   -4.8240   -1.0468    0.3451 H   0  0  0  0  0  0  0  0  0  0  0  0
   -2.7570   -1.9931   -1.4107 H   0  0  0  0  0  0  0  0  0  0  0  0
   -3.3929   -1.5115    2.0840 H   0  0  0  0  0  0  0  0  0  0  0  0
   -2.3751   -2.4480    0.9444 H   0  0  0  0  0  0  0  0  0  0  0  0
   -2.0582    0.3167    2.0730 H   0  0  0  0  0  0  0  0  0  0  0  0
    0.0911   -0.5742    2.4288 H   0  0  0  0  0  0  0  0  0  0  0  0
   -0.2077   -2.0465   -0.2456 H   0  0  0  0  0  0  0  0  0  0  0  0
    1.5424   -2.6846    2.0881 H   0  0  0  0  0  0  0  0  0  0  0  0
    1.8163   -3.1677    0.3944 H   0  0  0  0  0  0  0  0  0  0  0  0
    3.6176   -1.7099    1.5027 H   0  0  0  0  0  0  0  0  0  0  0  0
    2.4865   -0.3339    1.4887 H   0  0  0  0  0  0  0  0  0  0  0  0
    3.0726   -1.9019   -1.1119 H   0  0  0  0  0  0  0  0  0  0  0  0
    4.2943   -0.7636   -0.4830 H   0  0  0  0  0  0  0  0  0  0  0  0
    1.3785    0.0718   -0.9674 H   0  0  0  0  0  0  0  0  0  0  0  0
    2.3686   -0.6819   -3.1130 H   0  0  0  0  0  0  0  0  0  0  0  0
    2.1804    1.1064   -3.0790 H   0  0  0  0  0  0  0  0  0  0  0  0
    3.8123    0.3743   -2.8307 H   0  0  0  0  0  0  0  0  0  0  0  0
    0.3577    3.3060   -1.5231 H   0  0  0  0  0  0  0  0  0  0  0  0
    0.5127    1.5751    0.9922 H   0  0  0  0  0  0  0  0  0  0  0  0
   -1.9185    2.3740    1.0085 H   0  0  0  0  0  0  0  0  0  0  0  0
   -2.0195    3.6564   -0.7364 H   0  0  0  0  0  0  0  0  0  0  0  0
   -1.2833    0.0150   -0.8934 H   0  0  0  0  0  0  0  0  0  0  0  0
   -3.5090    0.4684   -1.5705 H   0  0  0  0  0  0  0  0  0  0  0  0
   -3.9804    1.0841    0.0641 H   0  0  0  0  0  0  0  0  0  0  0  0
  1  2  1  0
  1  3  1  0
  3  4  1  0
  4  5  1  0
  5  6  2  0
  6  7  1  0
  7  8  1  0
  8  9  1  0
  9 10  1  0
 10 11  1  0
 10 12  1  0
 12 13  1  0
 13 14  2  0
 13 15  1  0
 15 16  2  0
 16 17  1  0
 17 18  1  0
 17 19  1  0
 19 20  1  0
 20  1  1  0
 19  4  1  0
  1 21  1  1
  2 22  1  0
  3 23  1  0
  3 24  1  0
  4 25  1  1
  5 26  1  0
  6 27  1  0
  7 28  1  0
  7 29  1  0
  8 30  1  0
  8 31  1  0
  9 32  1  0
  9 33  1  0
 10 34  1  6
 11 35  1  0
 11 36  1  0
 11 37  1  0
 15 38  1  0
 16 39  1  0
 17 40  1  1
 18 41  1  0
 19 42  1  6
 20 43  1  0
 20 44  1  0
M  END
$$$$
