
     RDKit          3D

 32 34  0  0  0  0  0  0  0  0999 V2000
    2.7283    0.4700    0.1338 C   0  0  1  0  0  0  0  0  0  0  0  0
    3.3497    0.5479   -1.2696 C   0  0  0  0  0  0  0  0  0  0  0  0
    4.6117   -0.0638   -1.2912 O   0  0  0  0  0  0  0  0  0  0  0  0
    1.5238    1.2094    0.1429 O   0  0  0  0  0  0  0  0  0  0  0  0
    0.4688    0.3224    0.4454 C   0  0  1  0  0  0  0  0  0  0  0  0
   -0.6773    0.5874   -0.4290 N   0  0  0  0  0  0  0  0  0  0  0  0
   -0.6429    0.9472   -1.7375 C   0  0  0  0  0  0  0  0  0  0  0  0
   -1.8744    1.0332   -2.3037 N   0  0  0  0  0  0  0  0  0  0  0  0
   -2.6976    0.6988   -1.2928 C   0  0  0  0  0  0  0  0  0  0  0  0
   -4.0857    0.6057   -1.3271 C   0  0  0  0  0  0  0  0  0  0  0  0
   -4.7506    0.2099   -0.1499 C   0  0  0  0  0  0  0  0  0  0  0  0
   -6.5039    0.0847   -0.1701 Cl  0  0  0  0  0  0  0  0  0  0  0  0
   -4.0080   -0.0849    1.0250 C   0  0  0  0  0  0  0  0  0  0  0  0
   -4.8131   -0.5873    2.5047 Cl  0  0  0  0  0  0  0  0  0  0  0  0
   -2.6032    0.0199    1.0202 C   0  0  0  0  0  0  0  0  0  0  0  0
   -1.9842    0.4211   -0.1648 C   0  0  0  0  0  0  0  0  0  0  0  0
    0.9642   -1.1055    0.2655 C   0  0  2  0  0  0  0  0  0  0  0  0
    0.3362   -1.9915    1.1559 O   0  0  0  0  0  0  0  0  0  0  0  0
    2.4356   -0.9765    0.5525 C   0  0  2  0  0  0  0  0  0  0  0  0
    2.6842   -1.1405    1.9265 O   0  0  0  0  0  0  0  0  0  0  0  0
    3.4348    0.9429    0.8517 H   0  0  0  0  0  0  0  0  0  0  0  0
    3.4371    1.6128   -1.5845 H   0  0  0  0  0  0  0  0  0  0  0  0
    2.6903    0.0363   -2.0030 H   0  0  0  0  0  0  0  0  0  0  0  0
    5.2379    0.5604   -0.8396 H   0  0  0  0  0  0  0  0  0  0  0  0
    0.1805    0.4942    1.5062 H   0  0  0  0  0  0  0  0  0  0  0  0
    0.2720    1.1351   -2.2844 H   0  0  0  0  0  0  0  0  0  0  0  0
   -4.6341    0.8273   -2.2339 H   0  0  0  0  0  0  0  0  0  0  0  0
   -2.0288   -0.2069    1.9083 H   0  0  0  0  0  0  0  0  0  0  0  0
    0.8285   -1.4441   -0.7898 H   0  0  0  0  0  0  0  0  0  0  0  0
   -0.5573   -2.1889    0.7718 H   0  0  0  0  0  0  0  0  0  0  0  0
    3.0112   -1.7315   -0.0336 H   0  0  0  0  0  0  0  0  0  0  0  0
    3.6666   -1.2453    2.0242 H   0  0  0  0  0  0  0  0  0  0  0  0
  1  2  1  0
  2  3  1  0
  1  4  1  0
  4  5  1  0
  5  6  1  0
  6  7  1  0
  7  8  2  0
  8  9  1  0
  9 10  2  0
 10 11  1  0
 11 12  1  0
 11 13  2  0
 13 14  1  0
 13 15  1  0
 15 16  2  0
  5 17  1  0
 17 18  1  0
 17 19  1  0
 19 20  1  0
 19  1  1  0
 16  6  1  0
 16  9  1  0
  1 21  1  1
  2 22  1  0
  2 23  1  0
  3 24  1  0
  5 25  1  1
  7 26  1  0
 10 27  1  0
 15 28  1  0
 17 29  1  6
 18 30  1  0
 19 31  1  6
 20 32  1  0
M  END
$$$$
