
     RDKit          3D

 30 30  0  0  0  0  0  0  0  0999 V2000
   -4.6828    0.8540    1.2894 C   0  0  0  0  0  0  0  0  0  0  0  0
   -3.3110    0.5371    0.7708 C   0  0  0  0  0  0  0  0  0  0  0  0
   -3.1349   -0.4629   -0.1940 C   0  0  0  0  0  0  0  0  0  0  0  0
   -1.8593   -0.7548   -0.7066 C   0  0  0  0  0  0  0  0  0  0  0  0
   -0.7430    0.0069   -0.2765 C   0  0  0  0  0  0  0  0  0  0  0  0
    0.5565   -0.1937   -0.8688 N   0  0  0  0  0  0  0  0  0  0  0  0
    1.8016    0.1927   -0.2005 C   0  0  0  0  0  0  0  0  0  0  0  0
    3.0198   -0.3587   -0.9537 C   0  0  0  0  0  0  0  0  0  0  0  0
    4.3465    0.0893   -0.3290 C   0  0  0  0  0  0  0  0  0  0  0  0
    4.5575   -0.5522    0.9665 N   0  0  0  0  0  0  0  0  0  0  0  0
   -0.9357    1.0139    0.6892 C   0  0  0  0  0  0  0  0  0  0  0  0
   -2.2059    1.2776    1.2028 C   0  0  0  0  0  0  0  0  0  0  0  0
   -1.7148   -1.8451   -1.6320 N   0  0  0  0  0  4  0  0  0  0  0  0
   -2.7396   -2.1526   -2.4971 O   0  0  0  0  0  1  0  0  0  0  0  0
   -0.7612   -2.6431   -1.5212 O   0  0  0  0  0  0  0  0  0  0  0  0
   -5.3135   -0.0602    1.3129 H   0  0  0  0  0  0  0  0  0  0  0  0
   -5.1616    1.6074    0.6297 H   0  0  0  0  0  0  0  0  0  0  0  0
   -4.6289    1.2592    2.3224 H   0  0  0  0  0  0  0  0  0  0  0  0
   -3.9915   -1.0362   -0.5277 H   0  0  0  0  0  0  0  0  0  0  0  0
    0.6160   -0.6387   -1.8123 H   0  0  0  0  0  0  0  0  0  0  0  0
    1.8681    1.3013   -0.1615 H   0  0  0  0  0  0  0  0  0  0  0  0
    1.7930   -0.2095    0.8351 H   0  0  0  0  0  0  0  0  0  0  0  0
    2.9884    0.0065   -2.0036 H   0  0  0  0  0  0  0  0  0  0  0  0
    2.9755   -1.4698   -0.9751 H   0  0  0  0  0  0  0  0  0  0  0  0
    5.1700   -0.2047   -1.0167 H   0  0  0  0  0  0  0  0  0  0  0  0
    4.3730    1.1971   -0.2221 H   0  0  0  0  0  0  0  0  0  0  0  0
    5.5597   -0.4133    1.2309 H   0  0  0  0  0  0  0  0  0  0  0  0
    3.9968   -0.0382    1.6840 H   0  0  0  0  0  0  0  0  0  0  0  0
   -0.1102    1.6219    1.0323 H   0  0  0  0  0  0  0  0  0  0  0  0
   -2.3284    2.0690    1.9322 H   0  0  0  0  0  0  0  0  0  0  0  0
  1  2  1  0
  2  3  2  0
  3  4  1  0
  4  5  2  0
  5  6  1  0
  6  7  1  0
  7  8  1  0
  8  9  1  0
  9 10  1  0
  5 11  1  0
 11 12  2  0
  4 13  1  0
 13 14  1  0
 13 15  2  0
 12  2  1  0
  1 16  1  0
  1 17  1  0
  1 18  1  0
  3 19  1  0
  6 20  1  0
  7 21  1  0
  7 22  1  0
  8 23  1  0
  8 24  1  0
  9 25  1  0
  9 26  1  0
 10 27  1  0
 10 28  1  0
 11 29  1  0
 12 30  1  0
M  CHG  2  13   1  14  -1
M  END
$$$$
