
     RDKit          3D

 36 38  0  0  0  0  0  0  0  0999 V2000
   -1.2631    2.9446   -0.5325 C   0  0  0  0  0  0  0  0  0  0  0  0
   -1.4441    2.2008    0.7885 C   0  0  0  0  0  0  0  0  0  0  0  0
   -1.7175    0.7680    0.5500 N   0  0  0  0  0  0  0  0  0  0  0  0
   -3.0308    0.3811    0.5434 C   0  0  0  0  0  0  0  0  0  0  0  0
   -3.4097   -0.9521    0.3373 C   0  0  0  0  0  0  0  0  0  0  0  0
   -4.8551   -1.3086    0.3543 C   0  0  0  0  0  0  0  0  0  0  0  0
   -5.8157   -0.3260    0.5831 O   0  0  0  0  0  0  0  0  0  0  0  0
   -5.2324   -2.4961    0.1629 O   0  0  0  0  0  0  0  0  0  0  0  0
   -2.4038   -1.9099    0.1206 C   0  0  0  0  0  0  0  0  0  0  0  0
   -2.7097   -3.1217   -0.0595 O   0  0  0  0  0  0  0  0  0  0  0  0
   -1.0536   -1.5178    0.0991 C   0  0  0  0  0  0  0  0  0  0  0  0
   -0.7167   -0.1541    0.3070 C   0  0  0  0  0  0  0  0  0  0  0  0
    0.6505    0.2153    0.2511 C   0  0  0  0  0  0  0  0  0  0  0  0
    1.6569   -0.7352    0.0108 C   0  0  0  0  0  0  0  0  0  0  0  0
    1.2993   -2.0759   -0.1738 C   0  0  0  0  0  0  0  0  0  0  0  0
   -0.0369   -2.4633   -0.1331 C   0  0  0  0  0  0  0  0  0  0  0  0
    3.0835   -0.3250   -0.0511 C   0  0  0  0  0  0  0  0  0  0  0  0
    4.0812   -1.1095    0.5527 C   0  0  0  0  0  0  0  0  0  0  0  0
    5.4165   -0.7052    0.4826 C   0  0  0  0  0  0  0  0  0  0  0  0
    5.7498    0.4404   -0.1678 N   0  0  0  0  0  0  0  0  0  0  0  0
    4.8094    1.2201   -0.7630 C   0  0  0  0  0  0  0  0  0  0  0  0
    3.4622    0.8540   -0.7164 C   0  0  0  0  0  0  0  0  0  0  0  0
   -0.4169    2.5209   -1.1117 H   0  0  0  0  0  0  0  0  0  0  0  0
   -2.1896    2.8670   -1.1400 H   0  0  0  0  0  0  0  0  0  0  0  0
   -1.0559    4.0166   -0.3315 H   0  0  0  0  0  0  0  0  0  0  0  0
   -2.2823    2.6777    1.3443 H   0  0  0  0  0  0  0  0  0  0  0  0
   -0.5632    2.3402    1.4482 H   0  0  0  0  0  0  0  0  0  0  0  0
   -3.8052    1.1227    0.7043 H   0  0  0  0  0  0  0  0  0  0  0  0
   -6.8023   -0.5553    0.5969 H   0  0  0  0  0  0  0  0  0  0  0  0
    0.9590    1.2381    0.3973 H   0  0  0  0  0  0  0  0  0  0  0  0
    2.0546   -2.8256   -0.3747 H   0  0  0  0  0  0  0  0  0  0  0  0
   -0.2719   -3.5086   -0.2931 H   0  0  0  0  0  0  0  0  0  0  0  0
    3.8297   -2.0166    1.0877 H   0  0  0  0  0  0  0  0  0  0  0  0
    6.1888   -1.3023    0.9490 H   0  0  0  0  0  0  0  0  0  0  0  0
    5.1079    2.1243   -1.2765 H   0  0  0  0  0  0  0  0  0  0  0  0
    2.7269    1.4769   -1.2103 H   0  0  0  0  0  0  0  0  0  0  0  0
  1  2  1  0
  2  3  1  0
  3  4  1  0
  4  5  2  0
  5  6  1  0
  6  7  1  0
  6  8  2  0
  5  9  1  0
  9 10  2  0
  9 11  1  0
 11 12  2  0
 12 13  1  0
 13 14  2  0
 14 15  1  0
 15 16  2  0
 14 17  1  0
 17 18  2  0
 18 19  1  0
 19 20  2  0
 20 21  1  0
 21 22  2  0
 12  3  1  0
 22 17  1  0
 16 11  1  0
  1 23  1  0
  1 24  1  0
  1 25  1  0
  2 26  1  0
  2 27  1  0
  4 28  1  0
  7 29  1  0
 13 30  1  0
 15 31  1  0
 16 32  1  0
 18 33  1  0
 19 34  1  0
 21 35  1  0
 22 36  1  0
M  END
$$$$
