
     RDKit          3D

 26 26  0  0  0  0  0  0  0  0999 V2000
    1.9681   -1.8705    0.7495 N   0  0  0  0  0  0  0  0  0  0  0  0
    2.4156   -0.6863    0.0087 C   0  0  1  0  0  0  0  0  0  0  0  0
    1.4282   -0.2851   -1.1120 C   0  0  0  0  0  0  0  0  0  0  0  0
    0.0608    0.1110   -0.6053 C   0  0  0  0  0  0  0  0  0  0  0  0
   -0.1981    1.4367   -0.2346 C   0  0  0  0  0  0  0  0  0  0  0  0
   -1.4552    1.8001    0.2464 C   0  0  0  0  0  0  0  0  0  0  0  0
   -2.4766    0.8472    0.3648 C   0  0  0  0  0  0  0  0  0  0  0  0
   -3.7203    1.2397    0.8578 O   0  0  0  0  0  0  0  0  0  0  0  0
   -2.2363   -0.4953   -0.0095 C   0  0  0  0  0  0  0  0  0  0  0  0
   -0.9596   -0.8463   -0.4924 C   0  0  0  0  0  0  0  0  0  0  0  0
   -3.2650   -1.5035    0.0965 N   0  0  0  0  0  4  0  0  0  0  0  0
   -4.5529   -1.1755    0.4522 O   0  0  0  0  0  1  0  0  0  0  0  0
   -3.0055   -2.6994   -0.1521 O   0  0  0  0  0  0  0  0  0  0  0  0
    2.6974    0.4589    0.9440 C   0  0  0  0  0  0  0  0  0  0  0  0
    3.6815    1.3860    0.6155 O   0  0  0  0  0  0  0  0  0  0  0  0
    2.0207    0.6121    1.9970 O   0  0  0  0  0  0  0  0  0  0  0  0
    1.0527   -1.6789    1.2165 H   0  0  0  0  0  0  0  0  0  0  0  0
    1.8178   -2.6542    0.0732 H   0  0  0  0  0  0  0  0  0  0  0  0
    3.3789   -0.9461   -0.4831 H   0  0  0  0  0  0  0  0  0  0  0  0
    1.3304   -1.1303   -1.8281 H   0  0  0  0  0  0  0  0  0  0  0  0
    1.8640    0.5571   -1.6937 H   0  0  0  0  0  0  0  0  0  0  0  0
    0.5762    2.1897   -0.3153 H   0  0  0  0  0  0  0  0  0  0  0  0
   -1.6358    2.8288    0.5316 H   0  0  0  0  0  0  0  0  0  0  0  0
   -3.9075    2.1974    1.1318 H   0  0  0  0  0  0  0  0  0  0  0  0
   -0.7531   -1.8692   -0.7822 H   0  0  0  0  0  0  0  0  0  0  0  0
    3.8737    2.1758    1.2200 H   0  0  0  0  0  0  0  0  0  0  0  0
  1  2  1  0
  2  3  1  0
  3  4  1  0
  4  5  2  0
  5  6  1  0
  6  7  2  0
  7  8  1  0
  7  9  1  0
  9 10  2  0
  9 11  1  0
 11 12  1  0
 11 13  2  0
  2 14  1  0
 14 15  1  0
 14 16  2  0
 10  4  1  0
  1 17  1  0
  1 18  1  0
  2 19  1  6
  3 20  1  0
  3 21  1  0
  5 22  1  0
  6 23  1  0
  8 24  1  0
 10 25  1  0
 15 26  1  0
M  CHG  2  11   1  12  -1
M  END
$$$$
