
     RDKit          3D

 80 83  0  0  0  0  0  0  0  0999 V2000
    1.7324   -1.1144   -0.7491 C   0  0  1  0  0  0  0  0  0  0  0  0
    1.7570   -0.5056   -2.1784 C   0  0  0  0  0  0  0  0  0  0  0  0
    0.3652    0.0849   -2.4376 C   0  0  0  0  0  0  0  0  0  0  0  0
   -0.2896    0.1050   -1.0645 C   0  0  1  0  0  0  0  0  0  0  0  0
   -1.8243    0.3159   -1.0030 C   0  0  2  0  0  0  0  0  0  0  0  0
   -2.2652    1.6494   -1.7046 C   0  0  2  0  0  0  0  0  0  0  0  0
   -1.2855    2.6576   -1.6268 O   0  0  0  0  0  0  0  0  0  0  0  0
   -3.6139    2.2008   -1.1827 C   0  0  0  0  0  0  0  0  0  0  0  0
   -4.5248    1.0662   -0.6868 C   0  0  2  0  0  0  0  0  0  0  0  0
   -5.9927    1.5381   -0.5048 C   0  0  0  0  0  0  0  0  0  0  0  0
   -6.2602    2.2709    0.8143 C   0  0  2  0  0  0  0  0  0  0  0  0
   -5.6337    3.5278    0.8044 O   0  0  0  0  0  0  0  0  0  0  0  0
   -5.7810    1.4302    2.0021 C   0  0  0  0  0  0  0  0  0  0  0  0
   -4.2895    1.1026    1.8841 C   0  0  0  0  0  0  0  0  0  0  0  0
   -3.9124    0.3396    0.5744 C   0  0  1  0  0  0  0  0  0  0  0  0
   -4.5184   -1.0919    0.6254 C   0  0  0  0  0  0  0  0  0  0  0  0
   -2.3188    0.2923    0.4793 C   0  0  1  0  0  0  0  0  0  0  0  0
   -1.6624   -0.8304    1.3592 C   0  0  0  0  0  0  0  0  0  0  0  0
   -0.1341   -1.0359    1.1506 C   0  0  2  0  0  0  0  0  0  0  0  0
    0.6257   -0.0376    1.7939 O   0  0  0  0  0  0  0  0  0  0  0  0
    0.2132   -1.1731   -0.3647 C   0  0  2  0  0  0  0  0  0  0  0  0
   -0.4555   -2.4608   -0.9336 C   0  0  0  0  0  0  0  0  0  0  0  0
    2.7015   -2.3484   -0.5924 C   0  0  2  0  0  0  0  0  0  0  0  0
    2.3910   -3.5895   -1.4586 C   0  0  0  0  0  0  0  0  0  0  0  0
    2.9415   -2.7977    0.8732 C   0  0  0  0  0  0  0  0  0  0  0  0
    3.6468   -1.7652    1.7710 C   0  0  0  0  0  0  0  0  0  0  0  0
    5.0257   -1.4374    1.2763 C   0  0  0  0  0  0  0  0  0  0  0  0
    5.9765   -2.2290    1.5207 O   0  0  0  0  0  0  0  0  0  0  0  0
    5.2516   -0.2556    0.4971 N   0  0  0  0  0  0  0  0  0  0  0  0
    6.5630    0.0392   -0.0794 C   0  0  0  0  0  0  0  0  0  0  0  0
    6.5571    1.3632   -0.8512 C   0  0  0  0  0  0  0  0  0  0  0  0
    6.4364    2.7783    0.2379 S   0  0  0  0  0  6  0  0  0  0  0  0
    7.6395    2.7094    1.4118 O   0  0  0  0  0  0  0  0  0  0  0  0
    5.0862    2.8185    0.8979 O   0  0  0  0  0  0  0  0  0  0  0  0
    6.6176    4.0316   -0.5703 O   0  0  0  0  0  0  0  0  0  0  0  0
    2.1768   -0.3183   -0.1167 H   0  0  0  0  0  0  0  0  0  0  0  0
    2.5263    0.2969   -2.2339 H   0  0  0  0  0  0  0  0  0  0  0  0
    1.9947   -1.2403   -2.9710 H   0  0  0  0  0  0  0  0  0  0  0  0
   -0.2114   -0.5610   -3.1352 H   0  0  0  0  0  0  0  0  0  0  0  0
    0.4428    1.1050   -2.8714 H   0  0  0  0  0  0  0  0  0  0  0  0
    0.1688    0.9765   -0.5441 H   0  0  0  0  0  0  0  0  0  0  0  0
   -2.3202   -0.5094   -1.5535 H   0  0  0  0  0  0  0  0  0  0  0  0
   -2.3986    1.4130   -2.7836 H   0  0  0  0  0  0  0  0  0  0  0  0
   -1.1651    2.8903   -0.6694 H   0  0  0  0  0  0  0  0  0  0  0  0
   -3.4398    2.9183   -0.3533 H   0  0  0  0  0  0  0  0  0  0  0  0
   -4.1063    2.7635   -2.0059 H   0  0  0  0  0  0  0  0  0  0  0  0
   -4.5662    0.3343   -1.5269 H   0  0  0  0  0  0  0  0  0  0  0  0
   -6.6665    0.6558   -0.5558 H   0  0  0  0  0  0  0  0  0  0  0  0
   -6.2943    2.1911   -1.3529 H   0  0  0  0  0  0  0  0  0  0  0  0
   -7.3625    2.4130    0.9046 H   0  0  0  0  0  0  0  0  0  0  0  0
   -6.0397    4.0571    1.5397 H   0  0  0  0  0  0  0  0  0  0  0  0
   -5.9549    1.9937    2.9446 H   0  0  0  0  0  0  0  0  0  0  0  0
   -6.3767    0.4951    2.0697 H   0  0  0  0  0  0  0  0  0  0  0  0
   -3.7309    2.0619    1.9473 H   0  0  0  0  0  0  0  0  0  0  0  0
   -3.9896    0.5053    2.7722 H   0  0  0  0  0  0  0  0  0  0  0  0
   -4.3223   -1.5836    1.6016 H   0  0  0  0  0  0  0  0  0  0  0  0
   -4.1014   -1.7209   -0.1898 H   0  0  0  0  0  0  0  0  0  0  0  0
   -5.6192   -1.0811    0.5002 H   0  0  0  0  0  0  0  0  0  0  0  0
   -1.9321    1.2412    0.9107 H   0  0  0  0  0  0  0  0  0  0  0  0
   -1.8449   -0.6036    2.4316 H   0  0  0  0  0  0  0  0  0  0  0  0
   -2.1368   -1.8112    1.1708 H   0  0  0  0  0  0  0  0  0  0  0  0
    0.1161   -1.9883    1.6583 H   0  0  0  0  0  0  0  0  0  0  0  0
    0.1730    0.8369    1.6907 H   0  0  0  0  0  0  0  0  0  0  0  0
   -0.1671   -2.6489   -1.9868 H   0  0  0  0  0  0  0  0  0  0  0  0
   -1.5593   -2.4256   -0.9122 H   0  0  0  0  0  0  0  0  0  0  0  0
   -0.1850   -3.3361   -0.3120 H   0  0  0  0  0  0  0  0  0  0  0  0
    3.6825   -1.9906   -0.9758 H   0  0  0  0  0  0  0  0  0  0  0  0
    3.3246   -4.1752   -1.6022 H   0  0  0  0  0  0  0  0  0  0  0  0
    2.0167   -3.3373   -2.4672 H   0  0  0  0  0  0  0  0  0  0  0  0
    1.6734   -4.2720   -0.9635 H   0  0  0  0  0  0  0  0  0  0  0  0
    3.5727   -3.7147    0.8709 H   0  0  0  0  0  0  0  0  0  0  0  0
    1.9834   -3.0972    1.3375 H   0  0  0  0  0  0  0  0  0  0  0  0
    3.0471   -0.8413    1.8729 H   0  0  0  0  0  0  0  0  0  0  0  0
    3.7327   -2.1921    2.7937 H   0  0  0  0  0  0  0  0  0  0  0  0
    4.4434    0.3772    0.3043 H   0  0  0  0  0  0  0  0  0  0  0  0
    7.3296    0.0723    0.7240 H   0  0  0  0  0  0  0  0  0  0  0  0
    6.8369   -0.7780   -0.7810 H   0  0  0  0  0  0  0  0  0  0  0  0
    7.5054    1.4477   -1.4230 H   0  0  0  0  0  0  0  0  0  0  0  0
    5.7159    1.3801   -1.5768 H   0  0  0  0  0  0  0  0  0  0  0  0
    7.2625    2.1518    2.1386 H   0  0  0  0  0  0  0  0  0  0  0  0
  1  2  1  0
  2  3  1  0
  3  4  1  0
  4  5  1  0
  5  6  1  0
  6  7  1  0
  6  8  1  0
  8  9  1  0
  9 10  1  0
 10 11  1  0
 11 12  1  0
 11 13  1  0
 13 14  1  0
 14 15  1  0
 15 16  1  1
 15 17  1  0
 17 18  1  0
 18 19  1  0
 19 20  1  0
 19 21  1  0
 21 22  1  6
  1 23  1  0
 23 24  1  0
 23 25  1  0
 25 26  1  0
 26 27  1  0
 27 28  2  0
 27 29  1  0
 29 30  1  0
 30 31  1  0
 31 32  1  0
 32 33  1  0
 32 34  2  0
 32 35  2  0
 21  1  1  0
 21  4  1  0
 17  5  1  0
 15  9  1  0
  1 36  1  1
  2 37  1  0
  2 38  1  0
  3 39  1  0
  3 40  1  0
  4 41  1  1
  5 42  1  6
  6 43  1  6
  7 44  1  0
  8 45  1  0
  8 46  1  0
  9 47  1  6
 10 48  1  0
 10 49  1  0
 11 50  1  1
 12 51  1  0
 13 52  1  0
 13 53  1  0
 14 54  1  0
 14 55  1  0
 16 56  1  0
 16 57  1  0
 16 58  1  0
 17 59  1  1
 18 60  1  0
 18 61  1  0
 19 62  1  1
 20 63  1  0
 22 64  1  0
 22 65  1  0
 22 66  1  0
 23 67  1  6
 24 68  1  0
 24 69  1  0
 24 70  1  0
 25 71  1  0
 25 72  1  0
 26 73  1  0
 26 74  1  0
 29 75  1  0
 30 76  1  0
 30 77  1  0
 31 78  1  0
 31 79  1  0
 33 80  1  0
M  END
$$$$
