
     RDKit          3D

 17 18  0  0  0  0  0  0  0  0999 V2000
    3.9714   -0.3523    0.1824 O   0  0  0  0  0  1  0  0  0  0  0  0
    2.9865    0.5947    0.0188 N   0  0  0  0  0  4  0  0  0  0  0  0
    3.3194    1.7864   -0.1486 O   0  0  0  0  0  0  0  0  0  0  0  0
    1.5983    0.2171    0.0405 C   0  0  0  0  0  0  0  0  0  0  0  0
    0.5857    1.1946   -0.1283 C   0  0  0  0  0  0  0  0  0  0  0  0
   -0.7411    0.7753   -0.0990 C   0  0  0  0  0  0  0  0  0  0  0  0
   -1.8469    1.5278   -0.2370 N   0  0  0  0  0  0  0  0  0  0  0  0
   -2.8809    0.6981   -0.1400 N   0  0  0  0  0  0  0  0  0  0  0  0
   -2.4518   -0.5692    0.0572 C   0  0  0  0  0  0  0  0  0  0  0  0
   -1.0787   -0.5347    0.0857 C   0  0  0  0  0  0  0  0  0  0  0  0
   -0.1237   -1.5295    0.2556 C   0  0  0  0  0  0  0  0  0  0  0  0
    1.2297   -1.1439    0.2319 C   0  0  0  0  0  0  0  0  0  0  0  0
    0.8229    2.2403   -0.2765 H   0  0  0  0  0  0  0  0  0  0  0  0
   -3.8781    0.9986   -0.2087 H   0  0  0  0  0  0  0  0  0  0  0  0
   -3.0913   -1.4350    0.1691 H   0  0  0  0  0  0  0  0  0  0  0  0
   -0.4091   -2.5635    0.4010 H   0  0  0  0  0  0  0  0  0  0  0  0
    1.9878   -1.9049    0.3626 H   0  0  0  0  0  0  0  0  0  0  0  0
  1  2  1  0
  2  3  2  0
  2  4  1  0
  4  5  2  0
  5  6  1  0
  6  7  2  0
  7  8  1  0
  8  9  1  0
  9 10  2  0
 10 11  1  0
 11 12  2  0
 12  4  1  0
 10  6  1  0
  5 13  1  0
  8 14  1  0
  9 15  1  0
 11 16  1  0
 12 17  1  0
M  CHG  2   1  -1   2   1
M  END
$$$$
