
     RDKit          3D

 97101  0  0  0  0  0  0  0  0999 V2000
    2.7078    8.4612   -0.1178 C   0  0  0  0  0  0  0  0  0  0  0  0
    1.4747    8.1520   -0.7592 O   0  0  0  0  0  0  0  0  0  0  0  0
    0.8810    6.8780   -0.7750 C   0  0  0  0  0  0  0  0  0  0  0  0
    1.4764    5.7748   -0.1391 C   0  0  0  0  0  0  0  0  0  0  0  0
    0.8788    4.5570   -0.1720 N   0  0  0  0  0  0  0  0  0  0  0  0
   -0.3036    4.3411   -0.8093 C   0  0  0  0  0  0  0  0  0  0  0  0
   -0.8787    3.0632   -0.8142 O   0  0  0  0  0  0  0  0  0  0  0  0
   -0.2698    1.9229   -0.2078 C   0  0  2  0  0  0  0  0  0  0  0  0
    0.9562    1.4552   -0.9986 C   0  0  0  0  0  0  0  0  0  0  0  0
    0.8877   -0.0730   -1.0244 C   0  0  2  0  0  0  0  0  0  0  0  0
   -0.4660   -0.4179   -0.6124 N   0  0  0  0  0  0  0  0  0  0  0  0
   -1.2391    0.7441   -0.2003 C   0  0  0  0  0  0  0  0  0  0  0  0
   -1.0065   -1.7474   -0.7694 C   0  0  0  0  0  0  0  0  0  0  0  0
   -0.3198   -2.6199   -1.3691 O   0  0  0  0  0  0  0  0  0  0  0  0
   -2.3681   -2.1374   -0.2190 C   0  0  1  0  0  0  0  0  0  0  0  0
   -3.1004   -2.8969   -1.2439 N   0  0  0  0  0  0  0  0  0  0  0  0
   -4.4378   -2.5843   -1.6543 C   0  0  0  0  0  0  0  0  0  0  0  0
   -5.0400   -1.5935   -1.1588 O   0  0  0  0  0  0  0  0  0  0  0  0
   -5.0600   -3.4027   -2.6087 O   0  0  0  0  0  0  0  0  0  0  0  0
   -6.3955   -3.2548   -3.1140 C   0  0  0  0  0  0  0  0  0  0  0  0
   -7.4242   -3.3905   -1.9749 C   0  0  0  0  0  0  0  0  0  0  0  0
   -6.6254   -4.3865   -4.1272 C   0  0  0  0  0  0  0  0  0  0  0  0
   -6.5570   -1.9022   -3.8341 C   0  0  0  0  0  0  0  0  0  0  0  0
   -2.2826   -2.9373    1.1301 C   0  0  0  0  0  0  0  0  0  0  0  0
   -1.4702   -4.2454    0.9866 C   0  0  0  0  0  0  0  0  0  0  0  0
   -3.7070   -3.2959    1.6106 C   0  0  0  0  0  0  0  0  0  0  0  0
   -1.6206   -2.0657    2.2193 C   0  0  0  0  0  0  0  0  0  0  0  0
    1.8950   -0.6998   -0.0953 C   0  0  0  0  0  0  0  0  0  0  0  0
    2.8065   -1.4255   -0.5771 O   0  0  0  0  0  0  0  0  0  0  0  0
    1.8237   -0.4796    1.3210 N   0  0  0  0  0  0  0  0  0  0  0  0
    2.8067   -1.0434    2.2411 C   0  0  2  0  0  0  0  0  0  0  0  0
    2.7008   -2.5497    2.4419 C   0  0  0  0  0  0  0  0  0  0  0  0
    2.2176   -1.5990    3.5394 C   0  0  1  0  0  0  0  0  0  0  0  0
    3.0955   -1.6108    4.7626 C   0  0  0  0  0  0  0  0  0  0  0  0
    3.1161   -2.6639    5.5825 C   0  0  0  0  0  0  0  0  0  0  0  0
    4.1706   -0.4126    2.2549 C   0  0  0  0  0  0  0  0  0  0  0  0
    4.3354    0.6839    2.8539 O   0  0  0  0  0  0  0  0  0  0  0  0
    5.2568   -1.0157    1.5439 N   0  0  0  0  0  0  0  0  0  0  0  0
    6.8442   -0.3257    1.5549 S   0  0  0  0  0  6  0  0  0  0  0  0
    7.3458   -0.2510    2.9709 O   0  0  0  0  0  0  0  0  0  0  0  0
    6.7941    1.0551    0.9647 O   0  0  0  0  0  0  0  0  0  0  0  0
    7.9180   -1.3433    0.5443 C   0  0  0  0  0  0  0  0  0  0  0  0
    8.4805   -2.5635    1.2534 C   0  0  0  0  0  0  0  0  0  0  0  0
    9.3767   -1.3673    0.9687 C   0  0  0  0  0  0  0  0  0  0  0  0
   -0.9459    5.4069   -1.4619 C   0  0  0  0  0  0  0  0  0  0  0  0
   -0.3444    6.6903   -1.4435 C   0  0  0  0  0  0  0  0  0  0  0  0
   -0.9851    7.7596   -2.0970 C   0  0  0  0  0  0  0  0  0  0  0  0
   -2.1999    7.5594   -2.7567 C   0  0  0  0  0  0  0  0  0  0  0  0
   -2.7913    6.2943   -2.7742 C   0  0  0  0  0  0  0  0  0  0  0  0
   -4.3171    6.0528   -3.6057 Cl  0  0  0  0  0  0  0  0  0  0  0  0
   -2.1694    5.2208   -2.1306 C   0  0  0  0  0  0  0  0  0  0  0  0
    3.5301    7.8613   -0.5618 H   0  0  0  0  0  0  0  0  0  0  0  0
    2.9333    9.5370   -0.2661 H   0  0  0  0  0  0  0  0  0  0  0  0
    2.6322    8.2609    0.9718 H   0  0  0  0  0  0  0  0  0  0  0  0
    2.4160    5.8736    0.3855 H   0  0  0  0  0  0  0  0  0  0  0  0
    0.0226    2.1617    0.8396 H   0  0  0  0  0  0  0  0  0  0  0  0
    0.8991    1.8387   -2.0417 H   0  0  0  0  0  0  0  0  0  0  0  0
    1.8961    1.8363   -0.5407 H   0  0  0  0  0  0  0  0  0  0  0  0
    1.0627   -0.4278   -2.0654 H   0  0  0  0  0  0  0  0  0  0  0  0
   -2.0711    0.9082   -0.9199 H   0  0  0  0  0  0  0  0  0  0  0  0
   -1.6474    0.5986    0.8214 H   0  0  0  0  0  0  0  0  0  0  0  0
   -2.9310   -1.2064   -0.0073 H   0  0  0  0  0  0  0  0  0  0  0  0
   -2.6543   -3.7397   -1.6707 H   0  0  0  0  0  0  0  0  0  0  0  0
   -8.4583   -3.4052   -2.3821 H   0  0  0  0  0  0  0  0  0  0  0  0
   -7.3552   -2.5426   -1.2635 H   0  0  0  0  0  0  0  0  0  0  0  0
   -7.2509   -4.3329   -1.4126 H   0  0  0  0  0  0  0  0  0  0  0  0
   -6.5017   -5.3752   -3.6350 H   0  0  0  0  0  0  0  0  0  0  0  0
   -5.8864   -4.3190   -4.9545 H   0  0  0  0  0  0  0  0  0  0  0  0
   -7.6476   -4.3327   -4.5608 H   0  0  0  0  0  0  0  0  0  0  0  0
   -6.4902   -1.0538   -3.1232 H   0  0  0  0  0  0  0  0  0  0  0  0
   -7.5467   -1.8430   -4.3365 H   0  0  0  0  0  0  0  0  0  0  0  0
   -5.7623   -1.7791   -4.6007 H   0  0  0  0  0  0  0  0  0  0  0  0
   -1.4788   -4.8139    1.9417 H   0  0  0  0  0  0  0  0  0  0  0  0
   -1.8988   -4.9021    0.2017 H   0  0  0  0  0  0  0  0  0  0  0  0
   -0.4087   -4.0355    0.7399 H   0  0  0  0  0  0  0  0  0  0  0  0
   -4.2021   -3.9958    0.9041 H   0  0  0  0  0  0  0  0  0  0  0  0
   -3.6759   -3.7890    2.6064 H   0  0  0  0  0  0  0  0  0  0  0  0
   -4.3340   -2.3822    1.6967 H   0  0  0  0  0  0  0  0  0  0  0  0
   -2.2081   -1.1394    2.3937 H   0  0  0  0  0  0  0  0  0  0  0  0
   -1.5563   -2.6172    3.1823 H   0  0  0  0  0  0  0  0  0  0  0  0
   -0.5911   -1.7808    1.9231 H   0  0  0  0  0  0  0  0  0  0  0  0
    1.1092    0.1774    1.7050 H   0  0  0  0  0  0  0  0  0  0  0  0
    1.8772   -3.0424    1.8822 H   0  0  0  0  0  0  0  0  0  0  0  0
    3.6591   -3.0729    2.6520 H   0  0  0  0  0  0  0  0  0  0  0  0
    1.1144   -1.5797    3.6625 H   0  0  0  0  0  0  0  0  0  0  0  0
    3.6741   -0.7298    5.0201 H   0  0  0  0  0  0  0  0  0  0  0  0
    2.5231   -3.5482    5.3687 H   0  0  0  0  0  0  0  0  0  0  0  0
    3.7314   -2.6450    6.4761 H   0  0  0  0  0  0  0  0  0  0  0  0
    5.1016   -1.8943    1.0019 H   0  0  0  0  0  0  0  0  0  0  0  0
    7.7189   -1.4678   -0.5410 H   0  0  0  0  0  0  0  0  0  0  0  0
    8.6693   -3.4340    0.5903 H   0  0  0  0  0  0  0  0  0  0  0  0
    8.2086   -2.6810    2.3238 H   0  0  0  0  0  0  0  0  0  0  0  0
   10.0940   -1.5322    0.1373 H   0  0  0  0  0  0  0  0  0  0  0  0
    9.6406   -0.7744    1.8695 H   0  0  0  0  0  0  0  0  0  0  0  0
   -0.5517    8.7521   -2.1013 H   0  0  0  0  0  0  0  0  0  0  0  0
   -2.6817    8.3908   -3.2552 H   0  0  0  0  0  0  0  0  0  0  0  0
   -2.6446    4.2477   -2.1563 H   0  0  0  0  0  0  0  0  0  0  0  0
  1  2  1  0
  2  3  1  0
  3  4  2  0
  4  5  1  0
  5  6  2  0
  6  7  1  0
  7  8  1  0
  8  9  1  0
  9 10  1  0
 10 11  1  0
 11 12  1  0
 11 13  1  0
 13 14  2  0
 13 15  1  0
 15 16  1  0
 16 17  1  0
 17 18  2  0
 17 19  1  0
 19 20  1  0
 20 21  1  0
 20 22  1  0
 20 23  1  0
 15 24  1  0
 24 25  1  0
 24 26  1  0
 24 27  1  0
 10 28  1  0
 28 29  2  0
 28 30  1  0
 31 30  1  6
 31 32  1  0
 32 33  1  0
 33 34  1  0
 34 35  2  3
 31 36  1  0
 36 37  2  0
 36 38  1  0
 38 39  1  0
 39 40  2  0
 39 41  2  0
 39 42  1  0
 42 43  1  0
 43 44  1  0
  6 45  1  0
 45 46  2  0
 46 47  1  0
 47 48  2  0
 48 49  1  0
 49 50  1  0
 49 51  2  0
 46  3  1  0
 12  8  1  0
 33 31  1  0
 44 42  1  0
 51 45  1  0
  1 52  1  0
  1 53  1  0
  1 54  1  0
  4 55  1  0
  8 56  1  1
  9 57  1  0
  9 58  1  0
 10 59  1  6
 12 60  1  0
 12 61  1  0
 15 62  1  1
 16 63  1  0
 21 64  1  0
 21 65  1  0
 21 66  1  0
 22 67  1  0
 22 68  1  0
 22 69  1  0
 23 70  1  0
 23 71  1  0
 23 72  1  0
 25 73  1  0
 25 74  1  0
 25 75  1  0
 26 76  1  0
 26 77  1  0
 26 78  1  0
 27 79  1  0
 27 80  1  0
 27 81  1  0
 30 82  1  0
 32 83  1  0
 32 84  1  0
 33 85  1  1
 34 86  1  0
 35 87  1  0
 35 88  1  0
 38 89  1  0
 42 90  1  0
 43 91  1  0
 43 92  1  0
 44 93  1  0
 44 94  1  0
 47 95  1  0
 48 96  1  0
 51 97  1  0
M  END
$$$$
