
     RDKit          3D

 52 55  0  0  0  0  0  0  0  0999 V2000
    1.3198   -0.7628   -0.0398 C   0  0  2  0  0  0  0  0  0  0  0  0
    2.0515   -2.0670    0.2482 C   0  0  0  0  0  0  0  0  0  0  0  0
    3.5333   -1.6667    0.3669 C   0  0  0  0  0  0  0  0  0  0  0  0
    3.5902   -0.1028    0.4177 C   0  0  2  0  0  0  0  0  0  0  0  0
    4.1074    0.4324   -0.9375 C   0  0  0  0  0  0  0  0  0  0  0  0
    4.4936    0.3713    1.3969 O   0  0  0  0  0  0  0  0  0  0  0  0
    2.1064    0.3092    0.7334 C   0  0  2  0  0  0  0  0  0  0  0  0
    1.8762    0.2399    2.2818 C   0  0  0  0  0  0  0  0  0  0  0  0
    1.6340    1.6922    0.2153 C   0  0  0  0  0  0  0  0  0  0  0  0
    0.1044    1.8733    0.3750 C   0  0  0  0  0  0  0  0  0  0  0  0
   -0.7334    0.7066   -0.2386 C   0  0  2  0  0  0  0  0  0  0  0  0
   -2.2541    0.8571    0.0838 C   0  0  1  0  0  0  0  0  0  0  0  0
   -2.8256    2.1539   -0.5486 C   0  0  0  0  0  0  0  0  0  0  0  0
   -4.3409    2.2510   -0.3763 C   0  0  0  0  0  0  0  0  0  0  0  0
   -4.9980    1.0138   -0.8962 C   0  0  0  0  0  0  0  0  0  0  0  0
   -6.1674    1.0695   -1.3608 O   0  0  0  0  0  0  0  0  0  0  0  0
   -4.3138   -0.2811   -0.7923 C   0  0  0  0  0  0  0  0  0  0  0  0
   -3.0408   -0.3764   -0.3685 C   0  0  0  0  0  0  0  0  0  0  0  0
   -2.4778   -1.7486   -0.0819 C   0  0  0  0  0  0  0  0  0  0  0  0
   -0.9947   -1.8481   -0.4679 C   0  0  1  0  0  0  0  0  0  0  0  0
   -0.8379   -1.9301   -2.0005 C   0  0  0  0  0  0  0  0  0  0  0  0
   -0.2046   -0.6941    0.2128 C   0  0  1  0  0  0  0  0  0  0  0  0
    1.4559   -0.5714   -1.1274 H   0  0  0  0  0  0  0  0  0  0  0  0
    1.6901   -2.5141    1.1999 H   0  0  0  0  0  0  0  0  0  0  0  0
    1.9036   -2.8013   -0.5730 H   0  0  0  0  0  0  0  0  0  0  0  0
    3.9575   -2.1342    1.2814 H   0  0  0  0  0  0  0  0  0  0  0  0
    4.1041   -2.0751   -0.4964 H   0  0  0  0  0  0  0  0  0  0  0  0
    3.4666    0.1236   -1.7880 H   0  0  0  0  0  0  0  0  0  0  0  0
    5.1313    0.0446   -1.1277 H   0  0  0  0  0  0  0  0  0  0  0  0
    4.1795    1.5404   -0.9171 H   0  0  0  0  0  0  0  0  0  0  0  0
    4.4699   -0.2188    2.1931 H   0  0  0  0  0  0  0  0  0  0  0  0
    2.1810   -0.7416    2.6999 H   0  0  0  0  0  0  0  0  0  0  0  0
    0.8290    0.4092    2.5893 H   0  0  0  0  0  0  0  0  0  0  0  0
    2.4702    1.0287    2.7905 H   0  0  0  0  0  0  0  0  0  0  0  0
    1.8638    1.8102   -0.8648 H   0  0  0  0  0  0  0  0  0  0  0  0
    2.1643    2.5037    0.7592 H   0  0  0  0  0  0  0  0  0  0  0  0
   -0.1583    2.0172    1.4432 H   0  0  0  0  0  0  0  0  0  0  0  0
   -0.1545    2.8220   -0.1397 H   0  0  0  0  0  0  0  0  0  0  0  0
   -0.6052    0.7857   -1.3400 H   0  0  0  0  0  0  0  0  0  0  0  0
   -2.3729    0.9307    1.1879 H   0  0  0  0  0  0  0  0  0  0  0  0
   -2.5817    2.1860   -1.6340 H   0  0  0  0  0  0  0  0  0  0  0  0
   -2.3802    3.0482   -0.0656 H   0  0  0  0  0  0  0  0  0  0  0  0
   -4.7179    3.1411   -0.9254 H   0  0  0  0  0  0  0  0  0  0  0  0
   -4.5903    2.3682    0.7004 H   0  0  0  0  0  0  0  0  0  0  0  0
   -4.8725   -1.1735   -1.0497 H   0  0  0  0  0  0  0  0  0  0  0  0
   -3.0495   -2.5445   -0.6100 H   0  0  0  0  0  0  0  0  0  0  0  0
   -2.5860   -1.9455    1.0070 H   0  0  0  0  0  0  0  0  0  0  0  0
   -0.6208   -2.8107   -0.0543 H   0  0  0  0  0  0  0  0  0  0  0  0
   -1.3939   -2.8115   -2.3851 H   0  0  0  0  0  0  0  0  0  0  0  0
    0.2226   -2.0688   -2.2901 H   0  0  0  0  0  0  0  0  0  0  0  0
   -1.2425   -1.0301   -2.5061 H   0  0  0  0  0  0  0  0  0  0  0  0
   -0.3907   -0.8109    1.3000 H   0  0  0  0  0  0  0  0  0  0  0  0
  1  2  1  0
  2  3  1  0
  3  4  1  0
  4  5  1  0
  4  6  1  1
  4  7  1  0
  7  8  1  1
  7  9  1  0
  9 10  1  0
 10 11  1  0
 11 12  1  0
 12 13  1  0
 13 14  1  0
 14 15  1  0
 15 16  2  0
 15 17  1  0
 17 18  2  0
 18 19  1  0
 19 20  1  0
 20 21  1  0
 20 22  1  0
  7  1  1  0
 22 11  1  0
 22  1  1  0
 18 12  1  0
  1 23  1  6
  2 24  1  0
  2 25  1  0
  3 26  1  0
  3 27  1  0
  5 28  1  0
  5 29  1  0
  5 30  1  0
  6 31  1  0
  8 32  1  0
  8 33  1  0
  8 34  1  0
  9 35  1  0
  9 36  1  0
 10 37  1  0
 10 38  1  0
 11 39  1  6
 12 40  1  1
 13 41  1  0
 13 42  1  0
 14 43  1  0
 14 44  1  0
 17 45  1  0
 19 46  1  0
 19 47  1  0
 20 48  1  1
 21 49  1  0
 21 50  1  0
 21 51  1  0
 22 52  1  1
M  END
$$$$
