
     RDKit          3D

 58 60  0  0  0  0  0  0  0  0999 V2000
    4.8838    0.9084    0.5531 C   0  0  1  0  0  0  0  0  0  0  0  0
    5.6376    0.3238    1.7373 C   0  0  0  0  0  0  0  0  0  0  0  0
    6.9973    0.7099    1.7098 O   0  0  0  0  0  0  0  0  0  0  0  0
    7.6426    0.3282    0.4960 C   0  0  2  0  0  0  0  0  0  0  0  0
    9.0392    0.9519    0.5269 C   0  0  0  0  0  0  0  0  0  0  0  0
    6.9829    0.8620   -0.6501 O   0  0  0  0  0  0  0  0  0  0  0  0
    5.6223    0.4830   -0.7109 C   0  0  0  0  0  0  0  0  0  0  0  0
    7.8308   -1.1737    0.3943 C   0  0  0  0  0  0  0  0  0  0  0  0
    7.9403   -1.7780   -0.8550 O   0  0  0  0  0  0  0  0  0  0  0  0
    7.9624   -1.8692    1.4377 O   0  0  0  0  0  0  0  0  0  0  0  0
    3.5468    0.4088    0.5490 O   0  0  0  0  0  0  0  0  0  0  0  0
    2.5184    0.9526   -0.2314 C   0  0  0  0  0  0  0  0  0  0  0  0
    2.7386    1.9767   -0.9356 O   0  0  0  0  0  0  0  0  0  0  0  0
    1.2093    0.3482   -0.2203 N   0  0  0  0  0  0  0  0  0  0  0  0
    0.9970   -0.9305    0.4696 C   0  0  0  0  0  0  0  0  0  0  0  0
   -0.3862   -0.9644    1.1212 C   0  0  0  0  0  0  0  0  0  0  0  0
   -1.4153   -0.5284    0.1676 N   0  0  0  0  0  0  0  0  0  0  0  0
   -1.2028    0.7501   -0.5227 C   0  0  0  0  0  0  0  0  0  0  0  0
    0.1804    0.7838   -1.1742 C   0  0  0  0  0  0  0  0  0  0  0  0
   -2.7252   -1.1309    0.1809 C   0  0  0  0  0  0  0  0  0  0  0  0
   -2.9481   -2.1502    0.8911 O   0  0  0  0  0  0  0  0  0  0  0  0
   -3.7530   -0.5881   -0.6009 O   0  0  0  0  0  0  0  0  0  0  0  0
   -5.0881   -1.0952   -0.6104 C   0  0  1  0  0  0  0  0  0  0  0  0
   -5.7983   -0.7519    0.7057 C   0  0  0  0  0  0  0  0  0  0  0  0
   -7.1782   -0.5470    0.4801 O   0  0  0  0  0  0  0  0  0  0  0  0
   -7.3952    0.6063   -0.3361 C   0  0  2  0  0  0  0  0  0  0  0  0
   -8.7803    0.4860   -0.9832 C   0  0  0  0  0  0  0  0  0  0  0  0
   -6.4169    0.7739   -1.3657 O   0  0  0  0  0  0  0  0  0  0  0  0
   -5.8660   -0.4639   -1.7661 C   0  0  0  0  0  0  0  0  0  0  0  0
   -7.3969    1.8416    0.5298 C   0  0  0  0  0  0  0  0  0  0  0  0
   -6.9618    3.0579    0.0107 O   0  0  0  0  0  0  0  0  0  0  0  0
   -7.8374    1.7884    1.7101 O   0  0  0  0  0  0  0  0  0  0  0  0
    4.8802    2.0184    0.6393 H   0  0  0  0  0  0  0  0  0  0  0  0
    5.1830    0.7096    2.6742 H   0  0  0  0  0  0  0  0  0  0  0  0
    5.5385   -0.7843    1.7621 H   0  0  0  0  0  0  0  0  0  0  0  0
    8.9585    2.0579    0.5979 H   0  0  0  0  0  0  0  0  0  0  0  0
    9.6130    0.5866    1.4064 H   0  0  0  0  0  0  0  0  0  0  0  0
    9.6013    0.7015   -0.3993 H   0  0  0  0  0  0  0  0  0  0  0  0
    5.5209   -0.6125   -0.8773 H   0  0  0  0  0  0  0  0  0  0  0  0
    5.1623    0.9858   -1.5867 H   0  0  0  0  0  0  0  0  0  0  0  0
    8.0921   -2.7761   -0.9379 H   0  0  0  0  0  0  0  0  0  0  0  0
    1.0818   -1.7594   -0.2663 H   0  0  0  0  0  0  0  0  0  0  0  0
    1.7564   -1.0939    1.2638 H   0  0  0  0  0  0  0  0  0  0  0  0
   -0.3978   -0.2880    2.0033 H   0  0  0  0  0  0  0  0  0  0  0  0
   -0.5757   -1.9999    1.4768 H   0  0  0  0  0  0  0  0  0  0  0  0
   -1.2877    1.5793    0.2129 H   0  0  0  0  0  0  0  0  0  0  0  0
   -1.9622    0.9132   -1.3171 H   0  0  0  0  0  0  0  0  0  0  0  0
    0.3698    1.8190   -1.5305 H   0  0  0  0  0  0  0  0  0  0  0  0
    0.1921    0.1069   -2.0560 H   0  0  0  0  0  0  0  0  0  0  0  0
   -5.0684   -2.1978   -0.7625 H   0  0  0  0  0  0  0  0  0  0  0  0
   -5.3419    0.1458    1.1825 H   0  0  0  0  0  0  0  0  0  0  0  0
   -5.6751   -1.5938    1.4190 H   0  0  0  0  0  0  0  0  0  0  0  0
   -8.9826    1.3638   -1.6344 H   0  0  0  0  0  0  0  0  0  0  0  0
   -8.8424   -0.4325   -1.6031 H   0  0  0  0  0  0  0  0  0  0  0  0
   -9.5707    0.4270   -0.2037 H   0  0  0  0  0  0  0  0  0  0  0  0
   -5.1871   -0.2944   -2.6289 H   0  0  0  0  0  0  0  0  0  0  0  0
   -6.6636   -1.1556   -2.1186 H   0  0  0  0  0  0  0  0  0  0  0  0
   -6.9748    3.8985    0.5758 H   0  0  0  0  0  0  0  0  0  0  0  0
  1  2  1  0
  2  3  1  0
  3  4  1  0
  4  5  1  1
  4  6  1  0
  6  7  1  0
  4  8  1  0
  8  9  1  0
  8 10  2  0
  1 11  1  0
 11 12  1  0
 12 13  2  0
 12 14  1  0
 14 15  1  0
 15 16  1  0
 16 17  1  0
 17 18  1  0
 18 19  1  0
 17 20  1  0
 20 21  2  0
 20 22  1  0
 22 23  1  0
 23 24  1  0
 24 25  1  0
 25 26  1  0
 26 27  1  6
 26 28  1  0
 28 29  1  0
 26 30  1  0
 30 31  1  0
 30 32  2  0
  7  1  1  0
 19 14  1  0
 29 23  1  0
  1 33  1  1
  2 34  1  0
  2 35  1  0
  5 36  1  0
  5 37  1  0
  5 38  1  0
  7 39  1  0
  7 40  1  0
  9 41  1  0
 15 42  1  0
 15 43  1  0
 16 44  1  0
 16 45  1  0
 18 46  1  0
 18 47  1  0
 19 48  1  0
 19 49  1  0
 23 50  1  6
 24 51  1  0
 24 52  1  0
 27 53  1  0
 27 54  1  0
 27 55  1  0
 29 56  1  0
 29 57  1  0
 31 58  1  0
M  END
$$$$
