
     RDKit          3D

 30 32  0  0  0  0  0  0  0  0999 V2000
    3.2466    1.3741    1.2478 C   0  0  0  0  0  0  0  0  0  0  0  0
    3.0246    0.4127    0.1692 N   0  0  0  0  0  0  0  0  0  0  0  0
    3.9609   -0.2629   -0.5514 C   0  0  0  0  0  0  0  0  0  0  0  0
    5.3689   -0.0885   -0.3847 N   0  0  0  0  0  0  0  0  0  0  0  0
    3.4399   -1.1534   -1.4368 N   0  0  0  0  0  0  0  0  0  0  0  0
    2.1184   -1.0171   -1.2309 C   0  0  0  0  0  0  0  0  0  0  0  0
    1.8593   -0.0949   -0.2669 C   0  0  0  0  0  0  0  0  0  0  0  0
    0.5541    0.1841    0.1337 C   0  0  0  0  0  0  0  0  0  0  0  0
   -0.4931   -0.5180   -0.5084 C   0  0  0  0  0  0  0  0  0  0  0  0
   -0.1657   -1.4688   -1.5152 C   0  0  0  0  0  0  0  0  0  0  0  0
    1.1360   -1.7073   -1.8570 N   0  0  0  0  0  0  0  0  0  0  0  0
   -1.9087   -0.2681   -0.1358 C   0  0  0  0  0  0  0  0  0  0  0  0
   -2.2708   -0.0732    1.2102 C   0  0  0  0  0  0  0  0  0  0  0  0
   -3.6041    0.1620    1.5590 C   0  0  0  0  0  0  0  0  0  0  0  0
   -4.5928    0.2072    0.5722 C   0  0  0  0  0  0  0  0  0  0  0  0
   -5.9169    0.4430    0.9348 O   0  0  0  0  0  0  0  0  0  0  0  0
   -4.2429    0.0152   -0.7702 C   0  0  0  0  0  0  0  0  0  0  0  0
   -2.9108   -0.2213   -1.1229 C   0  0  0  0  0  0  0  0  0  0  0  0
    3.5187    0.8333    2.1780 H   0  0  0  0  0  0  0  0  0  0  0  0
    4.0637    2.0731    0.9734 H   0  0  0  0  0  0  0  0  0  0  0  0
    2.3363    1.9805    1.4305 H   0  0  0  0  0  0  0  0  0  0  0  0
    5.7546    0.5663    0.3298 H   0  0  0  0  0  0  0  0  0  0  0  0
    6.0346   -0.6380   -0.9718 H   0  0  0  0  0  0  0  0  0  0  0  0
    0.3508    0.9231    0.8966 H   0  0  0  0  0  0  0  0  0  0  0  0
   -0.9449   -2.0338   -2.0095 H   0  0  0  0  0  0  0  0  0  0  0  0
   -1.5265   -0.1206    1.9952 H   0  0  0  0  0  0  0  0  0  0  0  0
   -3.8697    0.3061    2.5986 H   0  0  0  0  0  0  0  0  0  0  0  0
   -6.6565    0.4816    0.2431 H   0  0  0  0  0  0  0  0  0  0  0  0
   -5.0015    0.0525   -1.5417 H   0  0  0  0  0  0  0  0  0  0  0  0
   -2.6625   -0.3490   -2.1689 H   0  0  0  0  0  0  0  0  0  0  0  0
  1  2  1  0
  2  3  1  0
  3  4  1  0
  3  5  2  0
  5  6  1  0
  6  7  2  0
  7  8  1  0
  8  9  2  0
  9 10  1  0
 10 11  2  0
  9 12  1  0
 12 13  2  0
 13 14  1  0
 14 15  2  0
 15 16  1  0
 15 17  1  0
 17 18  2  0
  7  2  1  0
 18 12  1  0
 11  6  1  0
  1 19  1  0
  1 20  1  0
  1 21  1  0
  4 22  1  0
  4 23  1  0
  8 24  1  0
 10 25  1  0
 13 26  1  0
 14 27  1  0
 16 28  1  0
 17 29  1  0
 18 30  1  0
M  END
$$$$
