
     RDKit          3D

 39 38  0  0  0  0  0  0  0  0999 V2000
    5.4837    0.2592    0.3630 N   0  0  0  0  0  0  0  0  0  0  0  0
    4.4687    1.1484   -0.2077 C   0  0  1  0  0  0  0  0  0  0  0  0
    3.1880    0.3671   -0.5667 C   0  0  0  0  0  0  0  0  0  0  0  0
    2.5598   -0.3612    0.6317 C   0  0  0  0  0  0  0  0  0  0  0  0
    1.3395   -1.1171    0.2009 C   0  0  0  0  0  0  0  0  0  0  0  0
    1.4321   -2.3465   -0.0637 O   0  0  0  0  0  0  0  0  0  0  0  0
    0.0866   -0.4334    0.0505 N   0  0  0  0  0  0  0  0  0  0  0  0
   -1.1526   -1.1388   -0.3007 C   0  0  1  0  0  0  0  0  0  0  0  0
   -1.7160   -1.8986    0.9122 C   0  0  0  0  0  0  0  0  0  0  0  0
   -2.0771   -0.8051    2.3105 S   0  0  0  0  0  4  0  0  0  0  0  0
   -2.8794   -1.8234    3.4123 O   0  0  0  0  0  0  0  0  0  0  0  0
   -0.7237   -0.5751    2.9693 O   0  0  0  0  0  0  0  0  0  0  0  0
   -2.1845   -0.1950   -0.8727 C   0  0  0  0  0  0  0  0  0  0  0  0
   -2.3041    0.9719   -0.4073 O   0  0  0  0  0  0  0  0  0  0  0  0
   -3.0765   -0.6507   -1.9006 N   0  0  0  0  0  0  0  0  0  0  0  0
   -4.1555    0.1815   -2.4258 C   0  0  0  0  0  0  0  0  0  0  0  0
   -5.2532    0.2984   -1.4176 C   0  0  0  0  0  0  0  0  0  0  0  0
   -5.3963    1.4683   -0.6785 O   0  0  0  0  0  0  0  0  0  0  0  0
   -6.0292   -0.6736   -1.2158 O   0  0  0  0  0  0  0  0  0  0  0  0
    4.1646    2.2842    0.7321 C   0  0  0  0  0  0  0  0  0  0  0  0
    3.7262    3.5011    0.2194 O   0  0  0  0  0  0  0  0  0  0  0  0
    4.2643    2.1296    1.9797 O   0  0  0  0  0  0  0  0  0  0  0  0
    6.3611    0.8113    0.5058 H   0  0  0  0  0  0  0  0  0  0  0  0
    5.7166   -0.4730   -0.3470 H   0  0  0  0  0  0  0  0  0  0  0  0
    4.8708    1.5880   -1.1488 H   0  0  0  0  0  0  0  0  0  0  0  0
    3.4363   -0.3784   -1.3545 H   0  0  0  0  0  0  0  0  0  0  0  0
    2.4446    1.0714   -1.0025 H   0  0  0  0  0  0  0  0  0  0  0  0
    3.2924   -1.0695    1.0756 H   0  0  0  0  0  0  0  0  0  0  0  0
    2.2689    0.3686    1.4166 H   0  0  0  0  0  0  0  0  0  0  0  0
    0.0634    0.5917    0.2541 H   0  0  0  0  0  0  0  0  0  0  0  0
   -0.9160   -1.8854   -1.0905 H   0  0  0  0  0  0  0  0  0  0  0  0
   -0.9917   -2.6739    1.2407 H   0  0  0  0  0  0  0  0  0  0  0  0
   -2.6525   -2.4200    0.6190 H   0  0  0  0  0  0  0  0  0  0  0  0
   -3.7436   -1.3712    3.5831 H   0  0  0  0  0  0  0  0  0  0  0  0
   -2.9611   -1.6149   -2.2865 H   0  0  0  0  0  0  0  0  0  0  0  0
   -4.5630   -0.2811   -3.3506 H   0  0  0  0  0  0  0  0  0  0  0  0
   -3.7648    1.1870   -2.6928 H   0  0  0  0  0  0  0  0  0  0  0  0
   -6.1261    1.5564    0.0185 H   0  0  0  0  0  0  0  0  0  0  0  0
    3.4993    4.2728    0.8352 H   0  0  0  0  0  0  0  0  0  0  0  0
  1  2  1  0
  2  3  1  0
  3  4  1  0
  4  5  1  0
  5  6  2  0
  5  7  1  0
  7  8  1  0
  8  9  1  0
  9 10  1  0
 10 11  1  6
 10 12  2  0
  8 13  1  0
 13 14  2  0
 13 15  1  0
 15 16  1  0
 16 17  1  0
 17 18  1  0
 17 19  2  0
  2 20  1  0
 20 21  1  0
 20 22  2  0
  1 23  1  0
  1 24  1  0
  2 25  1  6
  3 26  1  0
  3 27  1  0
  4 28  1  0
  4 29  1  0
  7 30  1  0
  8 31  1  6
  9 32  1  0
  9 33  1  0
 11 34  1  0
 15 35  1  0
 16 36  1  0
 16 37  1  0
 18 38  1  0
 21 39  1  0
M  END
$$$$
