
     RDKit          3D

 71 75  0  0  0  0  0  0  0  0999 V2000
   -9.9496   -0.8867    1.1288 N   0  0  0  0  0  0  0  0  0  0  0  0
   -8.7378   -1.5034    1.5725 C   0  0  0  0  0  0  0  0  0  0  0  0
   -8.7974   -2.6392    2.1163 O   0  0  0  0  0  0  0  0  0  0  0  0
   -7.4244   -0.8307    1.4218 C   0  0  0  0  0  0  0  0  0  0  0  0
   -6.3457   -1.1963    2.2436 C   0  0  0  0  0  0  0  0  0  0  0  0
   -5.1405   -0.5793    2.1165 N   0  0  0  0  0  4  0  0  0  0  0  0
   -4.9314    0.3945    1.1916 C   0  0  0  0  0  0  0  0  0  0  0  0
   -5.9628    0.7792    0.3216 C   0  0  0  0  0  0  0  0  0  0  0  0
   -7.2167    0.1653    0.4534 C   0  0  0  0  0  0  0  0  0  0  0  0
   -5.7571    1.8785   -0.6953 C   0  0  2  0  0  0  0  0  0  0  0  0
   -4.4598    1.8088   -1.2483 O   0  0  0  0  0  0  0  0  0  0  0  0
   -3.9549    3.1256   -1.3605 C   0  0  2  0  0  0  0  0  0  0  0  0
   -2.6740    3.2494   -0.5206 C   0  0  0  0  0  0  0  0  0  0  0  0
   -1.7651    2.2251   -0.8681 O   0  0  0  0  0  0  0  0  0  0  0  0
   -0.5153    2.8554   -1.8494 P   0  0  0  0  0  5  0  0  0  0  0  0
   -1.1805    3.7257   -3.1390 O   0  0  0  0  0  1  0  0  0  0  0  0
    0.3580    3.7836   -1.0341 O   0  0  0  0  0  0  0  0  0  0  0  0
    0.4369    1.5994   -2.4928 O   0  0  0  0  0  0  0  0  0  0  0  0
    0.7837    0.5108   -1.2306 P   0  0  0  0  0  5  0  0  0  0  0  0
    1.3189    1.3470    0.1458 O   0  0  0  0  0  0  0  0  0  0  0  0
   -0.4595   -0.2890   -0.9027 O   0  0  0  0  0  0  0  0  0  0  0  0
    2.0087   -0.5447   -1.7740 O   0  0  0  0  0  0  0  0  0  0  0  0
    2.3579   -1.4095   -0.7186 C   0  0  0  0  0  0  0  0  0  0  0  0
    3.4312   -2.3865   -1.2068 C   0  0  1  0  0  0  0  0  0  0  0  0
    4.5774   -1.6732   -1.6174 O   0  0  0  0  0  0  0  0  0  0  0  0
    5.7171   -2.4127   -1.2262 C   0  0  2  0  0  0  0  0  0  0  0  0
    5.2769   -3.6739   -0.4733 C   0  0  2  0  0  0  0  0  0  0  0  0
    5.4027   -4.8224   -1.2814 O   0  0  0  0  0  0  0  0  0  0  0  0
    3.8393   -3.3769   -0.1203 C   0  0  2  0  0  0  0  0  0  0  0  0
    3.0478   -4.5370   -0.1473 O   0  0  0  0  0  0  0  0  0  0  0  0
    6.5722   -1.5817   -0.3751 N   0  0  0  0  0  0  0  0  0  0  0  0
    6.1939   -0.6979    0.5860 C   0  0  0  0  0  0  0  0  0  0  0  0
    7.2423   -0.1629    1.2711 N   0  0  0  0  0  0  0  0  0  0  0  0
    8.3052   -0.7624    0.7022 C   0  0  0  0  0  0  0  0  0  0  0  0
    7.9062   -1.6126   -0.2709 C   0  0  0  0  0  0  0  0  0  0  0  0
    8.7754   -2.3723   -0.9806 N   0  0  0  0  0  0  0  0  0  0  0  0
   10.1078   -2.2545   -0.6967 C   0  0  0  0  0  0  0  0  0  0  0  0
   10.5378   -1.3953    0.2830 N   0  0  0  0  0  0  0  0  0  0  0  0
    9.6569   -0.6363    1.0015 C   0  0  0  0  0  0  0  0  0  0  0  0
   10.1224    0.2451    2.0236 N   0  0  0  0  0  0  0  0  0  0  0  0
   -5.0300    4.1200   -0.8990 C   0  0  1  0  0  0  0  0  0  0  0  0
   -5.6907    4.7062   -1.9980 O   0  0  0  0  0  0  0  0  0  0  0  0
   -5.9547    3.2547   -0.0742 C   0  0  1  0  0  0  0  0  0  0  0  0
   -7.2953    3.6627   -0.1653 O   0  0  0  0  0  0  0  0  0  0  0  0
  -10.8520   -1.4082    1.1929 H   0  0  0  0  0  0  0  0  0  0  0  0
   -9.9797    0.1098    0.8217 H   0  0  0  0  0  0  0  0  0  0  0  0
   -6.4678   -1.9631    2.9991 H   0  0  0  0  0  0  0  0  0  0  0  0
   -4.3568   -0.8577    2.7483 H   0  0  0  0  0  0  0  0  0  0  0  0
   -3.9594    0.8677    1.1316 H   0  0  0  0  0  0  0  0  0  0  0  0
   -8.0152    0.4542   -0.2169 H   0  0  0  0  0  0  0  0  0  0  0  0
   -6.4795    1.7431   -1.5326 H   0  0  0  0  0  0  0  0  0  0  0  0
   -3.6939    3.3166   -2.4237 H   0  0  0  0  0  0  0  0  0  0  0  0
   -2.9367    3.1125    0.5501 H   0  0  0  0  0  0  0  0  0  0  0  0
   -2.2595    4.2821   -0.6014 H   0  0  0  0  0  0  0  0  0  0  0  0
    1.0130    0.8043    0.9159 H   0  0  0  0  0  0  0  0  0  0  0  0
    2.7685   -0.8319    0.1399 H   0  0  0  0  0  0  0  0  0  0  0  0
    1.4734   -1.9983   -0.3846 H   0  0  0  0  0  0  0  0  0  0  0  0
    3.0321   -2.9413   -2.0865 H   0  0  0  0  0  0  0  0  0  0  0  0
    6.2842   -2.6888   -2.1430 H   0  0  0  0  0  0  0  0  0  0  0  0
    5.8753   -3.8320    0.4515 H   0  0  0  0  0  0  0  0  0  0  0  0
    4.8838   -4.6744   -2.1156 H   0  0  0  0  0  0  0  0  0  0  0  0
    3.8090   -2.9031    0.8902 H   0  0  0  0  0  0  0  0  0  0  0  0
    2.1880   -4.3015    0.2886 H   0  0  0  0  0  0  0  0  0  0  0  0
    5.1629   -0.4514    0.8014 H   0  0  0  0  0  0  0  0  0  0  0  0
   10.8278   -2.8444   -1.2470 H   0  0  0  0  0  0  0  0  0  0  0  0
   11.1436    0.3175    2.2286 H   0  0  0  0  0  0  0  0  0  0  0  0
    9.4549    0.8268    2.5773 H   0  0  0  0  0  0  0  0  0  0  0  0
   -4.6096    4.9374   -0.2720 H   0  0  0  0  0  0  0  0  0  0  0  0
   -6.0504    3.9787   -2.5708 H   0  0  0  0  0  0  0  0  0  0  0  0
   -5.6155    3.2574    0.9898 H   0  0  0  0  0  0  0  0  0  0  0  0
   -7.3739    4.4884    0.3800 H   0  0  0  0  0  0  0  0  0  0  0  0
  1  2  1  0
  2  3  2  0
  2  4  1  0
  4  5  2  0
  5  6  1  0
  6  7  2  0
  7  8  1  0
  8  9  2  0
  8 10  1  0
 10 11  1  0
 11 12  1  0
 12 13  1  0
 13 14  1  0
 14 15  1  0
 15 16  1  0
 15 17  2  0
 15 18  1  0
 18 19  1  0
 19 20  1  0
 19 21  2  0
 19 22  1  0
 22 23  1  0
 23 24  1  0
 24 25  1  0
 25 26  1  0
 26 27  1  0
 27 28  1  0
 27 29  1  0
 29 30  1  0
 26 31  1  0
 31 32  1  0
 32 33  2  0
 33 34  1  0
 34 35  2  0
 35 36  1  0
 36 37  2  0
 37 38  1  0
 38 39  2  0
 39 40  1  0
 12 41  1  0
 41 42  1  0
 41 43  1  0
 43 44  1  0
  9  4  1  0
 43 10  1  0
 29 24  1  0
 35 31  1  0
 39 34  1  0
  1 45  1  0
  1 46  1  0
  5 47  1  0
  6 48  1  0
  7 49  1  0
  9 50  1  0
 10 51  1  6
 12 52  1  6
 13 53  1  0
 13 54  1  0
 20 55  1  0
 23 56  1  0
 23 57  1  0
 24 58  1  6
 26 59  1  6
 27 60  1  1
 28 61  1  0
 29 62  1  1
 30 63  1  0
 32 64  1  0
 37 65  1  0
 40 66  1  0
 40 67  1  0
 41 68  1  1
 42 69  1  0
 43 70  1  1
 44 71  1  0
M  CHG  2   6   1  16  -1
M  END
$$$$
