
     RDKit          3D

 42 44  0  0  0  0  0  0  0  0999 V2000
   -2.0307    2.8562   -2.7251 Cl  0  0  0  0  0  0  0  0  0  0  0  0
   -0.3731    2.2787   -2.6177 C   0  0  0  0  0  0  0  0  0  0  0  0
    0.0064    1.3519   -1.6293 C   0  0  0  0  0  0  0  0  0  0  0  0
   -0.9740    0.8664   -0.6988 N   0  0  0  0  0  0  0  0  0  0  0  0
   -1.4094   -0.5287   -0.7642 C   0  0  0  0  0  0  0  0  0  0  0  0
   -2.8843   -0.6278   -0.3620 C   0  0  0  0  0  0  0  0  0  0  0  0
   -3.1525    0.0280    0.9350 N   0  0  0  0  0  0  0  0  0  0  0  0
   -2.5958   -0.7279    2.0771 C   0  0  0  0  0  0  0  0  0  0  0  0
   -3.2893   -0.3599    3.3169 C   0  0  0  0  0  0  0  0  0  0  0  0
   -3.8585   -0.0568    4.3354 C   0  0  0  0  0  0  0  0  0  0  0  0
   -2.7417    1.4515    0.9151 C   0  0  0  0  0  0  0  0  0  0  0  0
   -1.2743    1.6475    0.5017 C   0  0  0  0  0  0  0  0  0  0  0  0
    1.3378    0.8815   -1.5836 C   0  0  0  0  0  0  0  0  0  0  0  0
    1.7499   -0.0301   -0.5509 N   0  0  0  0  0  0  0  0  0  0  0  0
    2.6120   -1.1546   -0.7923 C   0  0  0  0  0  0  0  0  0  0  0  0
    2.9073   -1.4843   -1.9727 O   0  0  0  0  0  0  0  0  0  0  0  0
    3.1356   -1.9642    0.3207 C   0  0  0  0  0  0  0  0  0  0  0  0
    2.9594   -1.7301    1.6744 C   0  0  0  0  0  0  0  0  0  0  0  0
    3.6307   -2.7460    2.3207 C   0  0  0  0  0  0  0  0  0  0  0  0
    4.1724   -3.5313    1.3258 C   0  0  0  0  0  0  0  0  0  0  0  0
    5.2211   -5.0997    1.5973 Br  0  0  0  0  0  0  0  0  0  0  0  0
    3.8637   -3.0441    0.1473 O   0  0  0  0  0  0  0  0  0  0  0  0
    2.2710    1.3648   -2.5170 C   0  0  0  0  0  0  0  0  0  0  0  0
    1.8844    2.2848   -3.4930 C   0  0  0  0  0  0  0  0  0  0  0  0
    0.5665    2.7391   -3.5447 C   0  0  0  0  0  0  0  0  0  0  0  0
   -0.7877   -1.1499   -0.0853 H   0  0  0  0  0  0  0  0  0  0  0  0
   -1.2909   -0.9215   -1.7979 H   0  0  0  0  0  0  0  0  0  0  0  0
   -3.1935   -1.6954   -0.3313 H   0  0  0  0  0  0  0  0  0  0  0  0
   -3.5043   -0.1431   -1.1481 H   0  0  0  0  0  0  0  0  0  0  0  0
   -2.7473   -1.8196    1.9336 H   0  0  0  0  0  0  0  0  0  0  0  0
   -1.5072   -0.5527    2.1998 H   0  0  0  0  0  0  0  0  0  0  0  0
   -4.3582    0.2097    5.2294 H   0  0  0  0  0  0  0  0  0  0  0  0
   -2.9104    1.9216    1.9079 H   0  0  0  0  0  0  0  0  0  0  0  0
   -3.3892    1.9993    0.1957 H   0  0  0  0  0  0  0  0  0  0  0  0
   -1.1002    2.7292    0.3107 H   0  0  0  0  0  0  0  0  0  0  0  0
   -0.5948    1.3426    1.3242 H   0  0  0  0  0  0  0  0  0  0  0  0
    1.3232    0.0788    0.3945 H   0  0  0  0  0  0  0  0  0  0  0  0
    2.4185   -0.9211    2.1457 H   0  0  0  0  0  0  0  0  0  0  0  0
    3.7164   -2.8937    3.3889 H   0  0  0  0  0  0  0  0  0  0  0  0
    3.3051    1.0478   -2.4751 H   0  0  0  0  0  0  0  0  0  0  0  0
    2.6103    2.6518   -4.2071 H   0  0  0  0  0  0  0  0  0  0  0  0
    0.2757    3.4510   -4.3068 H   0  0  0  0  0  0  0  0  0  0  0  0
  1  2  1  0
  2  3  2  0
  3  4  1  0
  4  5  1  0
  5  6  1  0
  6  7  1  0
  7  8  1  0
  8  9  1  0
  9 10  3  0
  7 11  1  0
 11 12  1  0
  3 13  1  0
 13 14  1  0
 14 15  1  0
 15 16  2  0
 15 17  1  0
 17 18  2  0
 18 19  1  0
 19 20  2  0
 20 21  1  0
 20 22  1  0
 13 23  2  0
 23 24  1  0
 24 25  2  0
 25  2  1  0
 12  4  1  0
 22 17  1  0
  5 26  1  0
  5 27  1  0
  6 28  1  0
  6 29  1  0
  8 30  1  0
  8 31  1  0
 10 32  1  0
 11 33  1  0
 11 34  1  0
 12 35  1  0
 12 36  1  0
 14 37  1  0
 18 38  1  0
 19 39  1  0
 23 40  1  0
 24 41  1  0
 25 42  1  0
M  END
$$$$
