
     RDKit          3D

 28 29  0  0  0  0  0  0  0  0999 V2000
   -3.8066    2.0304    0.2955 N   0  0  0  0  0  0  0  0  0  0  0  0
   -2.6626    1.4215    0.8945 C   0  0  0  0  0  0  0  0  0  0  0  0
   -2.6384    1.2414    2.1419 O   0  0  0  0  0  0  0  0  0  0  0  0
   -1.5210    0.9478    0.0322 C   0  0  2  0  0  0  0  0  0  0  0  0
   -1.8243   -0.4695   -0.5757 C   0  0  0  0  0  0  0  0  0  0  0  0
   -0.5864   -1.4258   -0.7219 C   0  0  0  0  0  0  0  0  0  0  0  0
    0.5942   -1.1304    0.2566 C   0  0  2  0  0  0  0  0  0  0  0  0
    0.0387   -0.3453    1.4431 C   0  0  0  0  0  0  0  0  0  0  0  0
   -0.2619    0.9343    0.7977 N   0  0  0  0  0  0  0  0  0  0  0  0
    0.9001    1.0955   -0.0103 C   0  0  0  0  0  0  0  0  0  0  0  0
    1.2736    2.1994   -0.4882 O   0  0  0  0  0  0  0  0  0  0  0  0
    1.4838   -0.1458   -0.3484 N   0  0  0  0  0  0  0  0  0  0  0  0
    2.2346   -0.3599   -1.4572 O   0  0  0  0  0  0  0  0  0  0  0  0
    3.8223   -0.4895   -0.9059 S   0  0  0  0  0  6  0  0  0  0  0  0
    3.9223   -1.6856    0.2726 O   0  0  0  0  0  0  0  0  0  0  0  0
    4.7099   -0.8574   -2.0610 O   0  0  0  0  0  0  0  0  0  0  0  0
    4.2692    0.8275   -0.3347 O   0  0  0  0  0  0  0  0  0  0  0  0
   -4.6061    2.3465    0.8879 H   0  0  0  0  0  0  0  0  0  0  0  0
   -3.8615    2.1593   -0.7392 H   0  0  0  0  0  0  0  0  0  0  0  0
   -1.4281    1.6714   -0.8104 H   0  0  0  0  0  0  0  0  0  0  0  0
   -2.3139   -0.3488   -1.5664 H   0  0  0  0  0  0  0  0  0  0  0  0
   -2.5641   -0.9918    0.0717 H   0  0  0  0  0  0  0  0  0  0  0  0
   -0.9293   -2.4696   -0.5526 H   0  0  0  0  0  0  0  0  0  0  0  0
   -0.2195   -1.3866   -1.7705 H   0  0  0  0  0  0  0  0  0  0  0  0
    1.1445   -2.0469    0.5585 H   0  0  0  0  0  0  0  0  0  0  0  0
   -0.8568   -0.8188    1.9044 H   0  0  0  0  0  0  0  0  0  0  0  0
    0.8153   -0.2140    2.2320 H   0  0  0  0  0  0  0  0  0  0  0  0
    4.8721   -1.6889    0.5536 H   0  0  0  0  0  0  0  0  0  0  0  0
  1  2  1  0
  2  3  2  0
  2  4  1  0
  4  5  1  0
  5  6  1  0
  6  7  1  0
  7  8  1  0
  8  9  1  0
  9 10  1  0
 10 11  2  0
 10 12  1  0
 12 13  1  0
 13 14  1  0
 14 15  1  0
 14 16  2  0
 14 17  2  0
  9  4  1  0
 12  7  1  0
  1 18  1  0
  1 19  1  0
  4 20  1  6
  5 21  1  0
  5 22  1  0
  6 23  1  0
  6 24  1  0
  7 25  1  1
  8 26  1  0
  8 27  1  0
 15 28  1  0
M  END
$$$$
