
     RDKit          3D

 42 45  0  0  0  0  0  0  0  0999 V2000
    7.5862    1.0016    1.1004 C   0  0  0  0  0  0  0  0  0  0  0  0
    6.5349    1.0103    2.1149 N   0  0  0  0  0  0  0  0  0  0  0  0
    5.1056    0.2346    1.5005 S   0  0  0  0  0  6  0  0  0  0  0  0
    5.4400   -1.1542    1.0312 O   0  0  0  0  0  0  0  0  0  0  0  0
    4.0942    0.1442    2.6087 O   0  0  0  0  0  0  0  0  0  0  0  0
    4.4113    1.1744    0.1472 C   0  0  0  0  0  0  0  0  0  0  0  0
    3.0808    0.6045   -0.2585 C   0  0  0  0  0  0  0  0  0  0  0  0
    1.8984    1.0742    0.3332 C   0  0  0  0  0  0  0  0  0  0  0  0
    0.6637    0.5221   -0.0202 C   0  0  0  0  0  0  0  0  0  0  0  0
    0.5941   -0.5158   -0.9667 C   0  0  0  0  0  0  0  0  0  0  0  0
   -0.6647   -1.0960   -1.3415 N   0  0  0  0  0  0  0  0  0  0  0  0
   -1.8643   -0.6379   -0.7694 N   0  0  0  0  0  0  0  0  0  0  0  0
   -3.0473   -1.1017   -1.0471 C   0  0  0  0  0  0  0  0  0  0  0  0
   -3.4558   -2.1674   -1.9762 C   0  0  0  0  0  0  0  0  0  0  0  0
   -2.7005   -2.8587   -2.7075 O   0  0  0  0  0  0  0  0  0  0  0  0
   -4.8739   -2.3292   -1.9464 N   0  0  0  0  0  0  0  0  0  0  0  0
   -5.3361   -1.3664   -1.0025 C   0  0  0  0  0  0  0  0  0  0  0  0
   -4.2937   -0.6329   -0.4589 C   0  0  0  0  0  0  0  0  0  0  0  0
   -4.5647    0.3526    0.4821 C   0  0  0  0  0  0  0  0  0  0  0  0
   -5.8732    0.6030    0.8773 C   0  0  0  0  0  0  0  0  0  0  0  0
   -6.9416   -0.1348    0.3330 C   0  0  0  0  0  0  0  0  0  0  0  0
   -6.6694   -1.1379   -0.6243 C   0  0  0  0  0  0  0  0  0  0  0  0
   -6.0121    1.5878    1.8011 N   0  0  0  0  0  0  0  0  0  0  0  0
   -4.8106    2.1196    2.1391 C   0  0  0  0  0  0  0  0  0  0  0  0
   -3.5309    1.3865    1.3033 S   0  0  0  0  0  0  0  0  0  0  0  0
    1.7794   -0.9910   -1.5483 C   0  0  0  0  0  0  0  0  0  0  0  0
    3.0136   -0.4387   -1.1944 C   0  0  0  0  0  0  0  0  0  0  0  0
    7.2810    1.5836    0.2048 H   0  0  0  0  0  0  0  0  0  0  0  0
    7.8363   -0.0403    0.8083 H   0  0  0  0  0  0  0  0  0  0  0  0
    8.5022    1.4669    1.5211 H   0  0  0  0  0  0  0  0  0  0  0  0
    6.2859    2.0071    2.3103 H   0  0  0  0  0  0  0  0  0  0  0  0
    5.1108    1.1518   -0.7149 H   0  0  0  0  0  0  0  0  0  0  0  0
    4.2992    2.2340    0.4618 H   0  0  0  0  0  0  0  0  0  0  0  0
    1.9328    1.8666    1.0708 H   0  0  0  0  0  0  0  0  0  0  0  0
   -0.2326    0.9057    0.4496 H   0  0  0  0  0  0  0  0  0  0  0  0
   -0.6642   -1.8634   -2.0465 H   0  0  0  0  0  0  0  0  0  0  0  0
   -5.4475   -3.0060   -2.4969 H   0  0  0  0  0  0  0  0  0  0  0  0
   -7.9600    0.0620    0.6424 H   0  0  0  0  0  0  0  0  0  0  0  0
   -7.4733   -1.7186   -1.0573 H   0  0  0  0  0  0  0  0  0  0  0  0
   -4.6988    2.9180    2.8597 H   0  0  0  0  0  0  0  0  0  0  0  0
    1.7475   -1.7932   -2.2748 H   0  0  0  0  0  0  0  0  0  0  0  0
    3.9176   -0.8257   -1.6484 H   0  0  0  0  0  0  0  0  0  0  0  0
  1  2  1  0
  2  3  1  0
  3  4  2  0
  3  5  2  0
  3  6  1  0
  6  7  1  0
  7  8  2  0
  8  9  1  0
  9 10  2  0
 10 11  1  0
 11 12  1  0
 12 13  2  0
 13 14  1  0
 14 15  2  0
 14 16  1  0
 16 17  1  0
 17 18  2  0
 18 19  1  0
 19 20  2  0
 20 21  1  0
 21 22  2  0
 20 23  1  0
 23 24  2  0
 24 25  1  0
 10 26  1  0
 26 27  2  0
 27  7  1  0
 18 13  1  0
 25 19  1  0
 22 17  1  0
  1 28  1  0
  1 29  1  0
  1 30  1  0
  2 31  1  0
  6 32  1  0
  6 33  1  0
  8 34  1  0
  9 35  1  0
 11 36  1  0
 16 37  1  0
 21 38  1  0
 22 39  1  0
 24 40  1  0
 26 41  1  0
 27 42  1  0
M  END
$$$$
