
     RDKit          3D

 48 49  0  0  0  0  0  0  0  0999 V2000
    8.1477    0.5257   -1.6599 C   0  0  0  0  0  0  0  0  0  0  0  0
    6.8767    0.4471   -2.2969 O   0  0  0  0  0  0  0  0  0  0  0  0
    5.6658    0.2270   -1.6238 C   0  0  0  0  0  0  0  0  0  0  0  0
    5.5969    0.0602   -0.2283 C   0  0  0  0  0  0  0  0  0  0  0  0
    4.3652   -0.1561    0.3966 C   0  0  0  0  0  0  0  0  0  0  0  0
    3.1802   -0.2115   -0.3584 C   0  0  0  0  0  0  0  0  0  0  0  0
    3.2553   -0.0446   -1.7526 C   0  0  0  0  0  0  0  0  0  0  0  0
    4.4874    0.1728   -2.3754 C   0  0  0  0  0  0  0  0  0  0  0  0
    1.8716   -0.4409    0.3053 C   0  0  0  0  0  0  0  0  0  0  0  0
    0.9109   -1.2855   -0.2801 C   0  0  0  0  0  0  0  0  0  0  0  0
   -0.3227   -1.4953    0.3422 C   0  0  0  0  0  0  0  0  0  0  0  0
   -0.6160   -0.8653    1.5582 C   0  0  0  0  0  0  0  0  0  0  0  0
    0.3348   -0.0232    2.1466 C   0  0  0  0  0  0  0  0  0  0  0  0
    1.5698    0.1870    1.5274 C   0  0  0  0  0  0  0  0  0  0  0  0
   -2.1885   -1.0822    2.3211 S   0  0  0  0  0  6  0  0  0  0  0  0
   -2.8129   -2.3689    1.8573 O   0  0  0  0  0  0  0  0  0  0  0  0
   -2.0083   -1.1507    3.8116 O   0  0  0  0  0  0  0  0  0  0  0  0
   -3.2164    0.2661    1.9279 N   0  0  0  0  0  0  0  0  0  0  0  0
   -3.5476    0.3143    0.4893 C   0  0  1  0  0  0  0  0  0  0  0  0
   -5.0802    0.1342    0.2345 C   0  0  0  0  0  0  0  0  0  0  0  0
   -5.5584   -1.2557    0.6925 C   0  0  0  0  0  0  0  0  0  0  0  0
   -5.4573    0.3139   -1.2476 C   0  0  0  0  0  0  0  0  0  0  0  0
   -2.9153    1.9099   -0.1535 P   0  0  0  0  0  5  0  0  0  0  0  0
   -2.8277    1.8637   -1.8428 O   0  0  0  0  0  0  0  0  0  0  0  0
   -1.3616    2.1960    0.4554 O   0  0  0  0  0  0  0  0  0  0  0  0
   -3.8326    3.0348    0.2710 O   0  0  0  0  0  0  0  0  0  0  0  0
    8.3742   -0.4294   -1.1405 H   0  0  0  0  0  0  0  0  0  0  0  0
    8.9275    0.7062   -2.4277 H   0  0  0  0  0  0  0  0  0  0  0  0
    8.1603    1.3674   -0.9355 H   0  0  0  0  0  0  0  0  0  0  0  0
    6.4889    0.0928    0.3823 H   0  0  0  0  0  0  0  0  0  0  0  0
    4.3420   -0.2979    1.4699 H   0  0  0  0  0  0  0  0  0  0  0  0
    2.3592   -0.0638   -2.3600 H   0  0  0  0  0  0  0  0  0  0  0  0
    4.5265    0.3035   -3.4495 H   0  0  0  0  0  0  0  0  0  0  0  0
    1.1184   -1.7948   -1.2127 H   0  0  0  0  0  0  0  0  0  0  0  0
   -1.0491   -2.1447   -0.1290 H   0  0  0  0  0  0  0  0  0  0  0  0
    0.1143    0.4833    3.0778 H   0  0  0  0  0  0  0  0  0  0  0  0
    2.2797    0.8592    1.9928 H   0  0  0  0  0  0  0  0  0  0  0  0
   -4.0630    0.2374    2.5394 H   0  0  0  0  0  0  0  0  0  0  0  0
   -3.0131   -0.4790   -0.0772 H   0  0  0  0  0  0  0  0  0  0  0  0
   -5.6362    0.8988    0.8211 H   0  0  0  0  0  0  0  0  0  0  0  0
   -5.4007   -1.4030    1.7797 H   0  0  0  0  0  0  0  0  0  0  0  0
   -6.6478   -1.3697    0.5065 H   0  0  0  0  0  0  0  0  0  0  0  0
   -5.0194   -2.0545    0.1392 H   0  0  0  0  0  0  0  0  0  0  0  0
   -4.8151   -0.3203   -1.8956 H   0  0  0  0  0  0  0  0  0  0  0  0
   -6.5192    0.0351   -1.4185 H   0  0  0  0  0  0  0  0  0  0  0  0
   -5.3583    1.3752   -1.5535 H   0  0  0  0  0  0  0  0  0  0  0  0
   -2.1916    1.1311   -2.0419 H   0  0  0  0  0  0  0  0  0  0  0  0
   -1.4945    2.3997    1.4154 H   0  0  0  0  0  0  0  0  0  0  0  0
  1  2  1  0
  2  3  1  0
  3  4  2  0
  4  5  1  0
  5  6  2  0
  6  7  1  0
  7  8  2  0
  6  9  1  0
  9 10  2  0
 10 11  1  0
 11 12  2  0
 12 13  1  0
 13 14  2  0
 12 15  1  0
 15 16  2  0
 15 17  2  0
 15 18  1  0
 18 19  1  0
 19 20  1  0
 20 21  1  0
 20 22  1  0
 19 23  1  0
 23 24  1  0
 23 25  1  0
 23 26  2  0
  8  3  1  0
 14  9  1  0
  1 27  1  0
  1 28  1  0
  1 29  1  0
  4 30  1  0
  5 31  1  0
  7 32  1  0
  8 33  1  0
 10 34  1  0
 11 35  1  0
 13 36  1  0
 14 37  1  0
 18 38  1  0
 19 39  1  6
 20 40  1  0
 21 41  1  0
 21 42  1  0
 21 43  1  0
 22 44  1  0
 22 45  1  0
 22 46  1  0
 24 47  1  0
 25 48  1  0
M  END
$$$$
