
     RDKit          3D

 76 78  0  0  0  0  0  0  0  0999 V2000
   -3.5366   -2.1176   -3.3044 C   0  0  0  0  0  0  0  0  0  0  0  0
   -3.4393   -0.6838   -3.0046 N   0  0  0  0  0  0  0  0  0  0  0  0
   -2.7265   -0.3620   -1.7480 C   0  0  0  0  0  0  0  0  0  0  0  0
   -1.3170   -0.9779   -1.6927 C   0  0  0  0  0  0  0  0  0  0  0  0
   -3.5613   -0.7273   -0.4913 C   0  0  0  0  0  0  0  0  0  0  0  0
   -5.0240   -0.2093   -0.5853 C   0  0  0  0  0  0  0  0  0  0  0  0
   -5.6007   -0.0239    0.8178 C   0  0  0  0  0  0  0  0  0  0  0  0
   -4.7284    0.9355    1.6633 C   0  0  0  0  0  0  0  0  0  0  0  0
   -4.7524    0.5163    3.0688 N   0  0  0  0  0  0  0  0  0  0  0  0
   -3.2768    0.9806    1.1175 C   0  0  0  0  0  0  0  0  0  0  0  0
   -2.3929    1.4471    2.1203 O   0  0  0  0  0  0  0  0  0  0  0  0
   -1.0883    1.6802    1.6056 C   0  0  0  0  0  0  0  0  0  0  0  0
   -0.6929    3.1491    1.8708 C   0  0  0  0  0  0  0  0  0  0  0  0
   -1.6144    4.0485    1.1712 N   0  0  0  0  0  0  0  0  0  0  0  0
    0.7448    3.4103    1.3811 C   0  0  0  0  0  0  0  0  0  0  0  0
    1.7748    2.4565    2.0133 C   0  0  0  0  0  0  0  0  0  0  0  0
    2.0586    2.8396    3.4010 N   0  0  0  0  0  0  0  0  0  0  0  0
    1.3593    0.9663    1.8750 C   0  0  0  0  0  0  0  0  0  0  0  0
    1.5057    0.5822    0.5134 O   0  0  0  0  0  0  0  0  0  0  0  0
    2.5085   -0.4027    0.3476 C   0  0  0  0  0  0  0  0  0  0  0  0
    3.7784    0.1661    0.6134 O   0  0  0  0  0  0  0  0  0  0  0  0
    4.7703   -0.8387    0.5795 C   0  0  0  0  0  0  0  0  0  0  0  0
    4.9726   -1.3776   -0.8596 C   0  0  0  0  0  0  0  0  0  0  0  0
    6.0353   -2.5015   -0.8156 C   0  0  0  0  0  0  0  0  0  0  0  0
    5.4247   -0.3402   -1.6995 O   0  0  0  0  0  0  0  0  0  0  0  0
    3.6077   -1.9173   -1.4025 C   0  0  0  0  0  0  0  0  0  0  0  0
    3.6848   -2.2019   -2.8542 N   0  0  0  0  0  0  0  0  0  0  0  0
    2.5125   -2.9416   -3.3370 C   0  0  0  0  0  0  0  0  0  0  0  0
    2.4516   -0.9208   -1.1034 C   0  0  0  0  0  0  0  0  0  0  0  0
    2.4245    0.1371   -2.0333 O   0  0  0  0  0  0  0  0  0  0  0  0
   -0.1087    0.7077    2.2943 C   0  0  0  0  0  0  0  0  0  0  0  0
   -0.2556    0.7874    3.6897 O   0  0  0  0  0  0  0  0  0  0  0  0
   -2.8837   -0.3160    0.6959 O   0  0  0  0  0  0  0  0  0  0  0  0
   -2.5390   -2.5499   -3.5316 H   0  0  0  0  0  0  0  0  0  0  0  0
   -4.1745   -2.2539   -4.2026 H   0  0  0  0  0  0  0  0  0  0  0  0
   -4.0155   -2.6731   -2.4738 H   0  0  0  0  0  0  0  0  0  0  0  0
   -2.9349   -0.2249   -3.7994 H   0  0  0  0  0  0  0  0  0  0  0  0
   -2.5814    0.7407   -1.7352 H   0  0  0  0  0  0  0  0  0  0  0  0
   -0.7447   -0.5344   -0.8522 H   0  0  0  0  0  0  0  0  0  0  0  0
   -1.3633   -2.0760   -1.5350 H   0  0  0  0  0  0  0  0  0  0  0  0
   -0.7664   -0.7653   -2.6334 H   0  0  0  0  0  0  0  0  0  0  0  0
   -3.6241   -1.8342   -0.4282 H   0  0  0  0  0  0  0  0  0  0  0  0
   -5.6487   -0.9321   -1.1541 H   0  0  0  0  0  0  0  0  0  0  0  0
   -5.0626    0.7657   -1.1201 H   0  0  0  0  0  0  0  0  0  0  0  0
   -5.6556   -1.0241    1.3035 H   0  0  0  0  0  0  0  0  0  0  0  0
   -6.6368    0.3725    0.7470 H   0  0  0  0  0  0  0  0  0  0  0  0
   -5.1556    1.9622    1.5866 H   0  0  0  0  0  0  0  0  0  0  0  0
   -5.7505    0.4415    3.3739 H   0  0  0  0  0  0  0  0  0  0  0  0
   -4.3448    1.2832    3.6518 H   0  0  0  0  0  0  0  0  0  0  0  0
   -3.2656    1.7022    0.2641 H   0  0  0  0  0  0  0  0  0  0  0  0
   -1.0102    1.5111    0.5029 H   0  0  0  0  0  0  0  0  0  0  0  0
   -0.7536    3.3572    2.9630 H   0  0  0  0  0  0  0  0  0  0  0  0
   -2.5657    3.9464    1.5935 H   0  0  0  0  0  0  0  0  0  0  0  0
   -1.3269    5.0352    1.3667 H   0  0  0  0  0  0  0  0  0  0  0  0
    0.7792    3.2944    0.2747 H   0  0  0  0  0  0  0  0  0  0  0  0
    1.0330    4.4597    1.6103 H   0  0  0  0  0  0  0  0  0  0  0  0
    2.7225    2.5916    1.4452 H   0  0  0  0  0  0  0  0  0  0  0  0
    2.8235    2.2305    3.7723 H   0  0  0  0  0  0  0  0  0  0  0  0
    1.2207    2.6971    4.0048 H   0  0  0  0  0  0  0  0  0  0  0  0
    2.0075    0.3700    2.5635 H   0  0  0  0  0  0  0  0  0  0  0  0
    2.2963   -1.2665    1.0266 H   0  0  0  0  0  0  0  0  0  0  0  0
    4.5286   -1.6664    1.2868 H   0  0  0  0  0  0  0  0  0  0  0  0
    5.7196   -0.3914    0.9447 H   0  0  0  0  0  0  0  0  0  0  0  0
    6.3569   -2.7953   -1.8353 H   0  0  0  0  0  0  0  0  0  0  0  0
    5.6446   -3.3971   -0.2867 H   0  0  0  0  0  0  0  0  0  0  0  0
    6.9447   -2.1543   -0.2794 H   0  0  0  0  0  0  0  0  0  0  0  0
    6.2888   -0.0065   -1.3408 H   0  0  0  0  0  0  0  0  0  0  0  0
    3.3792   -2.8600   -0.8512 H   0  0  0  0  0  0  0  0  0  0  0  0
    4.5048   -2.8220   -3.0371 H   0  0  0  0  0  0  0  0  0  0  0  0
    2.7000   -3.2959   -4.3731 H   0  0  0  0  0  0  0  0  0  0  0  0
    1.6225   -2.2799   -3.3741 H   0  0  0  0  0  0  0  0  0  0  0  0
    2.3026   -3.8283   -2.6994 H   0  0  0  0  0  0  0  0  0  0  0  0
    1.4942   -1.4734   -1.2023 H   0  0  0  0  0  0  0  0  0  0  0  0
    3.1729    0.7529   -1.8252 H   0  0  0  0  0  0  0  0  0  0  0  0
   -0.3826   -0.3232    1.9666 H   0  0  0  0  0  0  0  0  0  0  0  0
    0.1465   -0.0368    4.0705 H   0  0  0  0  0  0  0  0  0  0  0  0
  1  2  1  0
  2  3  1  0
  3  4  1  0
  3  5  1  0
  5  6  1  0
  6  7  1  0
  7  8  1  0
  8  9  1  0
  8 10  1  0
 10 11  1  0
 11 12  1  0
 12 13  1  0
 13 14  1  0
 13 15  1  0
 15 16  1  0
 16 17  1  0
 16 18  1  0
 18 19  1  0
 19 20  1  0
 20 21  1  0
 21 22  1  0
 22 23  1  0
 23 24  1  0
 23 25  1  0
 23 26  1  0
 26 27  1  0
 27 28  1  0
 26 29  1  0
 29 30  1  0
 18 31  1  0
 31 32  1  0
 10 33  1  0
 33  5  1  0
 31 12  1  0
 29 20  1  0
  1 34  1  0
  1 35  1  0
  1 36  1  0
  2 37  1  0
  3 38  1  0
  4 39  1  0
  4 40  1  0
  4 41  1  0
  5 42  1  0
  6 43  1  0
  6 44  1  0
  7 45  1  0
  7 46  1  0
  8 47  1  0
  9 48  1  0
  9 49  1  0
 10 50  1  0
 12 51  1  0
 13 52  1  0
 14 53  1  0
 14 54  1  0
 15 55  1  0
 15 56  1  0
 16 57  1  0
 17 58  1  0
 17 59  1  0
 18 60  1  0
 20 61  1  0
 22 62  1  0
 22 63  1  0
 24 64  1  0
 24 65  1  0
 24 66  1  0
 25 67  1  0
 26 68  1  0
 27 69  1  0
 28 70  1  0
 28 71  1  0
 28 72  1  0
 29 73  1  0
 30 74  1  0
 31 75  1  0
 32 76  1  0
M  END
$$$$
