
     RDKit          3D

 53 54  0  0  0  0  0  0  0  0999 V2000
   -8.3636   -1.5132    3.0900 C   0  0  0  0  0  0  0  0  0  0  0  0
   -7.9679   -0.9099    1.8623 O   0  0  0  0  0  0  0  0  0  0  0  0
   -6.6368   -0.6621    1.4906 C   0  0  0  0  0  0  0  0  0  0  0  0
   -5.5544   -0.9956    2.3246 C   0  0  0  0  0  0  0  0  0  0  0  0
   -4.2441   -0.7370    1.9199 C   0  0  0  0  0  0  0  0  0  0  0  0
   -3.9835   -0.1527    0.6730 C   0  0  0  0  0  0  0  0  0  0  0  0
   -2.5744    0.1119    0.2918 C   0  0  0  0  0  0  0  0  0  0  0  0
   -2.1600    0.2125   -0.9791 C   0  0  0  0  0  0  0  0  0  0  0  0
   -0.7438    0.4595   -1.3409 C   0  0  0  0  0  0  0  0  0  0  0  0
    0.1269    1.0839   -0.4436 O   0  0  0  0  0  0  0  0  0  0  0  0
   -0.3150    0.1183   -2.5670 C   0  0  0  0  0  0  0  0  0  0  0  0
    1.0694    0.3058   -3.0479 C   0  0  0  0  0  0  0  0  0  0  0  0
    1.2462    0.5453   -4.2730 O   0  0  0  0  0  0  0  0  0  0  0  0
    2.2369    0.1471   -2.1527 C   0  0  0  0  0  0  0  0  0  0  0  0
    3.4774    0.4852   -2.5328 C   0  0  0  0  0  0  0  0  0  0  0  0
    4.6719    0.3248   -1.6679 C   0  0  0  0  0  0  0  0  0  0  0  0
    4.5888    0.3058   -0.2623 C   0  0  0  0  0  0  0  0  0  0  0  0
    5.7490    0.1621    0.5247 C   0  0  0  0  0  0  0  0  0  0  0  0
    5.6990    0.1324    1.9278 O   0  0  0  0  0  0  0  0  0  0  0  0
    4.5047    0.2332    2.6970 C   0  0  0  0  0  0  0  0  0  0  0  0
    7.0012    0.0480   -0.0974 C   0  0  0  0  0  0  0  0  0  0  0  0
    8.1383   -0.0979    0.7130 O   0  0  0  0  0  0  0  0  0  0  0  0
    9.4687   -0.2235    0.2211 C   0  0  0  0  0  0  0  0  0  0  0  0
    7.0846    0.0863   -1.5010 C   0  0  0  0  0  0  0  0  0  0  0  0
    5.9317    0.2294   -2.2743 C   0  0  0  0  0  0  0  0  0  0  0  0
   -5.0669    0.1992   -0.1547 C   0  0  0  0  0  0  0  0  0  0  0  0
   -6.3927   -0.0588    0.2479 C   0  0  0  0  0  0  0  0  0  0  0  0
   -7.4944    0.2732   -0.5572 O   0  0  0  0  0  0  0  0  0  0  0  0
   -7.4038    0.8843   -1.8403 C   0  0  0  0  0  0  0  0  0  0  0  0
   -7.9368   -2.5354    3.1682 H   0  0  0  0  0  0  0  0  0  0  0  0
   -9.4700   -1.5874    3.1171 H   0  0  0  0  0  0  0  0  0  0  0  0
   -8.0280   -0.8914    3.9467 H   0  0  0  0  0  0  0  0  0  0  0  0
   -5.7147   -1.4559    3.2899 H   0  0  0  0  0  0  0  0  0  0  0  0
   -3.4284   -1.0043    2.5810 H   0  0  0  0  0  0  0  0  0  0  0  0
   -1.8469    0.1506    1.0922 H   0  0  0  0  0  0  0  0  0  0  0  0
   -2.8627    0.0443   -1.7854 H   0  0  0  0  0  0  0  0  0  0  0  0
   -0.1784    1.4653    0.4422 H   0  0  0  0  0  0  0  0  0  0  0  0
   -1.0282   -0.2735   -3.2838 H   0  0  0  0  0  0  0  0  0  0  0  0
    2.0724   -0.2993   -1.1823 H   0  0  0  0  0  0  0  0  0  0  0  0
    3.6360    0.8628   -3.5365 H   0  0  0  0  0  0  0  0  0  0  0  0
    3.6313    0.4289    0.2208 H   0  0  0  0  0  0  0  0  0  0  0  0
    3.8176   -0.6028    2.4473 H   0  0  0  0  0  0  0  0  0  0  0  0
    4.0082    1.2079    2.5056 H   0  0  0  0  0  0  0  0  0  0  0  0
    4.7615    0.1717    3.7743 H   0  0  0  0  0  0  0  0  0  0  0  0
    9.5561   -1.1282   -0.4170 H   0  0  0  0  0  0  0  0  0  0  0  0
    9.7490    0.6819   -0.3576 H   0  0  0  0  0  0  0  0  0  0  0  0
   10.1642   -0.3257    1.0791 H   0  0  0  0  0  0  0  0  0  0  0  0
    8.0376    0.0066   -2.0058 H   0  0  0  0  0  0  0  0  0  0  0  0
    6.0236    0.2553   -3.3536 H   0  0  0  0  0  0  0  0  0  0  0  0
   -4.8837    0.6950   -1.0962 H   0  0  0  0  0  0  0  0  0  0  0  0
   -6.8290    0.2343   -2.5334 H   0  0  0  0  0  0  0  0  0  0  0  0
   -8.4258    1.0223   -2.2487 H   0  0  0  0  0  0  0  0  0  0  0  0
   -6.9180    1.8793   -1.7560 H   0  0  0  0  0  0  0  0  0  0  0  0
  1  2  1  0
  2  3  1  0
  3  4  2  0
  4  5  1  0
  5  6  2  0
  6  7  1  0
  7  8  2  0
  8  9  1  0
  9 10  1  0
  9 11  2  0
 11 12  1  0
 12 13  2  0
 12 14  1  0
 14 15  2  0
 15 16  1  0
 16 17  2  0
 17 18  1  0
 18 19  1  0
 19 20  1  0
 18 21  2  0
 21 22  1  0
 22 23  1  0
 21 24  1  0
 24 25  2  0
  6 26  1  0
 26 27  2  0
 27 28  1  0
 28 29  1  0
 27  3  1  0
 25 16  1  0
  1 30  1  0
  1 31  1  0
  1 32  1  0
  4 33  1  0
  5 34  1  0
  7 35  1  0
  8 36  1  0
 10 37  1  0
 11 38  1  0
 14 39  1  0
 15 40  1  0
 17 41  1  0
 20 42  1  0
 20 43  1  0
 20 44  1  0
 23 45  1  0
 23 46  1  0
 23 47  1  0
 24 48  1  0
 25 49  1  0
 26 50  1  0
 29 51  1  0
 29 52  1  0
 29 53  1  0
M  END
$$$$
