
     RDKit          3D

 58 62  0  0  0  0  0  0  0  0999 V2000
    2.7306   -0.0263    1.1773 C   0  0  0  0  0  0  0  0  0  0  0  0
    3.8859   -0.1728    0.6158 N   0  0  0  0  0  0  0  0  0  0  0  0
    4.8775   -0.9085    1.2274 O   0  0  0  0  0  0  0  0  0  0  0  0
    6.1606   -1.0731    0.6247 C   0  0  0  0  0  0  0  0  0  0  0  0
    6.0085   -1.7871   -0.7291 C   0  0  0  0  0  0  0  0  0  0  0  0
    7.0228   -1.9280    1.5634 C   0  0  0  0  0  0  0  0  0  0  0  0
    6.8208    0.3023    0.4277 C   0  0  0  0  0  0  0  0  0  0  0  0
    1.6376    0.7030    0.4977 C   0  0  0  0  0  0  0  0  0  0  0  0
    0.3362    0.1965    0.5970 C   0  0  0  0  0  0  0  0  0  0  0  0
   -0.1760   -1.0211    1.3204 C   0  0  0  0  0  0  0  0  0  0  0  0
   -1.6009   -1.0246    0.9661 N   0  0  0  0  0  0  0  0  0  0  0  0
   -1.8922    0.0154    0.1601 C   0  0  0  0  0  0  0  0  0  0  0  0
   -3.1819    0.2418   -0.3101 C   0  0  0  0  0  0  0  0  0  0  0  0
   -4.2095   -0.6610    0.0599 C   0  0  0  0  0  0  0  0  0  0  0  0
   -3.8709   -1.7598    0.9060 C   0  0  0  0  0  0  0  0  0  0  0  0
   -4.9579   -2.7205    1.3225 C   0  0  0  0  0  0  0  0  0  0  0  0
   -5.8627   -2.9202    0.2415 O   0  0  0  0  0  0  0  0  0  0  0  0
   -6.2468   -1.8647   -0.5884 C   0  0  0  0  0  0  0  0  0  0  0  0
   -7.0262   -2.1033   -1.5475 O   0  0  0  0  0  0  0  0  0  0  0  0
   -5.6899   -0.4643   -0.3231 C   0  0  1  0  0  0  0  0  0  0  0  0
   -6.3254    0.0977    0.8024 O   0  0  0  0  0  0  0  0  0  0  0  0
   -5.8850    0.4875   -1.5499 C   0  0  0  0  0  0  0  0  0  0  0  0
   -7.3397    0.8780   -1.8527 C   0  0  0  0  0  0  0  0  0  0  0  0
   -2.5445   -1.9173    1.3629 C   0  0  0  0  0  0  0  0  0  0  0  0
   -2.2314   -2.8691    2.1291 O   0  0  0  0  0  0  0  0  0  0  0  0
   -0.6992    0.7864   -0.0811 C   0  0  0  0  0  0  0  0  0  0  0  0
   -0.5360    1.8765   -0.8636 N   0  0  0  0  0  0  0  0  0  0  0  0
    0.6994    2.4424   -0.9757 C   0  0  0  0  0  0  0  0  0  0  0  0
    0.8561    3.5867   -1.7653 C   0  0  0  0  0  0  0  0  0  0  0  0
    2.1014    4.2070   -1.8656 C   0  0  0  0  0  0  0  0  0  0  0  0
    3.1968    3.6980   -1.1676 C   0  0  0  0  0  0  0  0  0  0  0  0
    3.0633    2.5534   -0.3768 C   0  0  0  0  0  0  0  0  0  0  0  0
    1.8236    1.8844   -0.2848 C   0  0  0  0  0  0  0  0  0  0  0  0
    2.5255   -0.5397    2.1094 H   0  0  0  0  0  0  0  0  0  0  0  0
    5.4008   -1.1735   -1.4282 H   0  0  0  0  0  0  0  0  0  0  0  0
    7.0026   -1.9650   -1.1930 H   0  0  0  0  0  0  0  0  0  0  0  0
    5.4989   -2.7650   -0.5928 H   0  0  0  0  0  0  0  0  0  0  0  0
    7.1281   -1.4289    2.5507 H   0  0  0  0  0  0  0  0  0  0  0  0
    8.0365   -2.0859    1.1355 H   0  0  0  0  0  0  0  0  0  0  0  0
    6.5480   -2.9194    1.7264 H   0  0  0  0  0  0  0  0  0  0  0  0
    6.2237    0.9265   -0.2710 H   0  0  0  0  0  0  0  0  0  0  0  0
    7.8440    0.1903    0.0084 H   0  0  0  0  0  0  0  0  0  0  0  0
    6.8903    0.8379    1.3988 H   0  0  0  0  0  0  0  0  0  0  0  0
   -0.0483   -0.9088    2.4182 H   0  0  0  0  0  0  0  0  0  0  0  0
    0.3207   -1.9407    0.9432 H   0  0  0  0  0  0  0  0  0  0  0  0
   -3.3449    1.1004   -0.9398 H   0  0  0  0  0  0  0  0  0  0  0  0
   -4.5425   -3.7062    1.6190 H   0  0  0  0  0  0  0  0  0  0  0  0
   -5.5069   -2.2937    2.1886 H   0  0  0  0  0  0  0  0  0  0  0  0
   -7.3020   -0.0686    0.7320 H   0  0  0  0  0  0  0  0  0  0  0  0
   -5.3834    1.4557   -1.3553 H   0  0  0  0  0  0  0  0  0  0  0  0
   -5.4275    0.0337   -2.4561 H   0  0  0  0  0  0  0  0  0  0  0  0
   -7.9800    0.0060   -2.0808 H   0  0  0  0  0  0  0  0  0  0  0  0
   -7.7794    1.4408   -1.0028 H   0  0  0  0  0  0  0  0  0  0  0  0
   -7.3572    1.5446   -2.7408 H   0  0  0  0  0  0  0  0  0  0  0  0
    0.0086    4.0032   -2.2959 H   0  0  0  0  0  0  0  0  0  0  0  0
    2.2147    5.0947   -2.4744 H   0  0  0  0  0  0  0  0  0  0  0  0
    4.1543    4.1989   -1.2321 H   0  0  0  0  0  0  0  0  0  0  0  0
    3.9306    2.2270    0.1762 H   0  0  0  0  0  0  0  0  0  0  0  0
  1  2  2  0
  2  3  1  0
  3  4  1  0
  4  5  1  0
  4  6  1  0
  4  7  1  0
  1  8  1  0
  8  9  2  0
  9 10  1  0
 10 11  1  0
 11 12  1  0
 12 13  2  0
 13 14  1  0
 14 15  2  0
 15 16  1  0
 16 17  1  0
 17 18  1  0
 18 19  2  0
 18 20  1  0
 20 21  1  1
 20 22  1  0
 22 23  1  0
 15 24  1  0
 24 25  2  0
 12 26  1  0
 26 27  2  0
 27 28  1  0
 28 29  2  0
 29 30  1  0
 30 31  2  0
 31 32  1  0
 32 33  2  0
 33  8  1  0
 26  9  1  0
 33 28  1  0
 24 11  1  0
 20 14  1  0
  1 34  1  0
  5 35  1  0
  5 36  1  0
  5 37  1  0
  6 38  1  0
  6 39  1  0
  6 40  1  0
  7 41  1  0
  7 42  1  0
  7 43  1  0
 10 44  1  0
 10 45  1  0
 13 46  1  0
 16 47  1  0
 16 48  1  0
 21 49  1  0
 22 50  1  0
 22 51  1  0
 23 52  1  0
 23 53  1  0
 23 54  1  0
 29 55  1  0
 30 56  1  0
 31 57  1  0
 32 58  1  0
M  END
$$$$
