
     RDKit          3D

 12 12  0  0  0  0  0  0  0  0999 V2000
   -1.7221   -0.1206    0.1237 C   0  0  0  0  0  0  0  0  0  0  0  0
   -0.2410    0.0585    0.0850 C   0  0  0  0  0  0  0  0  0  0  0  0
    0.7053   -0.8920   -0.2278 C   0  0  0  0  0  0  0  0  0  0  0  0
    1.9097   -0.2944   -0.2348 N   0  0  0  0  0  0  0  0  0  0  0  0
    1.7730    0.9932    0.0423 N   0  0  0  0  0  0  0  0  0  0  0  0
    0.4618    1.2368    0.2361 C   0  0  0  0  0  0  0  0  0  0  0  0
   -1.9720   -1.1511    0.4528 H   0  0  0  0  0  0  0  0  0  0  0  0
   -2.1740    0.6023    0.8350 H   0  0  0  0  0  0  0  0  0  0  0  0
   -2.1422    0.0518   -0.8890 H   0  0  0  0  0  0  0  0  0  0  0  0
    0.5316   -1.9377   -0.4460 H   0  0  0  0  0  0  0  0  0  0  0  0
    2.8228   -0.7574   -0.4382 H   0  0  0  0  0  0  0  0  0  0  0  0
    0.0471    2.2105    0.4609 H   0  0  0  0  0  0  0  0  0  0  0  0
  1  2  1  0
  2  3  2  0
  3  4  1  0
  4  5  1  0
  5  6  2  0
  6  2  1  0
  1  7  1  0
  1  8  1  0
  1  9  1  0
  3 10  1  0
  4 11  1  0
  6 12  1  0
M  END
$$$$
