
     RDKit          3D

 19 18  0  0  0  0  0  0  0  0999 V2000
   -0.5311   -0.0743    1.8576 N   0  0  0  0  0  0  0  0  0  0  0  0
   -0.1328    0.0587    0.4477 C   0  0  0  0  0  0  0  0  0  0  0  0
   -1.3642    0.5818   -0.3383 C   0  0  0  0  0  0  0  0  0  0  0  0
   -1.0685    0.7875   -1.6932 O   0  0  0  0  0  0  0  0  0  0  0  0
    0.3156   -1.3337   -0.0779 C   0  0  0  0  0  0  0  0  0  0  0  0
    0.6582   -1.2896   -1.4365 O   0  0  0  0  0  0  0  0  0  0  0  0
    1.0327    1.0830    0.3875 C   0  0  0  0  0  0  0  0  0  0  0  0
    1.4741    1.3092   -0.9265 O   0  0  0  0  0  0  0  0  0  0  0  0
    0.2679   -0.4545    2.4169 H   0  0  0  0  0  0  0  0  0  0  0  0
   -1.3129   -0.7653    1.9418 H   0  0  0  0  0  0  0  0  0  0  0  0
   -2.1981   -0.1517   -0.2536 H   0  0  0  0  0  0  0  0  0  0  0  0
   -1.7081    1.5406    0.1124 H   0  0  0  0  0  0  0  0  0  0  0  0
   -1.9043    1.1215   -2.1112 H   0  0  0  0  0  0  0  0  0  0  0  0
    1.1919   -1.6881    0.5108 H   0  0  0  0  0  0  0  0  0  0  0  0
   -0.5099   -2.0674    0.0648 H   0  0  0  0  0  0  0  0  0  0  0  0
    0.9357   -2.2102   -1.6821 H   0  0  0  0  0  0  0  0  0  0  0  0
    0.6881    2.0526    0.8074 H   0  0  0  0  0  0  0  0  0  0  0  0
    1.8763    0.7409    1.0334 H   0  0  0  0  0  0  0  0  0  0  0  0
    2.2893    0.7589   -1.0609 H   0  0  0  0  0  0  0  0  0  0  0  0
  1  2  1  0
  2  3  1  0
  3  4  1  0
  2  5  1  0
  5  6  1  0
  2  7  1  0
  7  8  1  0
  1  9  1  0
  1 10  1  0
  3 11  1  0
  3 12  1  0
  4 13  1  0
  5 14  1  0
  5 15  1  0
  6 16  1  0
  7 17  1  0
  7 18  1  0
  8 19  1  0
M  END
$$$$
