
     RDKit          3D

 62 65  0  0  0  0  0  0  0  0999 V2000
    0.9856   -0.1554   -0.9121 C   0  0  2  0  0  0  0  0  0  0  0  0
    1.7779   -0.8388   -2.0193 C   0  0  0  0  0  0  0  0  0  0  0  0
    3.2512   -0.5527   -1.6854 C   0  0  0  0  0  0  0  0  0  0  0  0
    3.2879    0.1739   -0.3056 C   0  0  2  0  0  0  0  0  0  0  0  0
    3.3202    1.5822   -0.6450 O   0  0  0  0  0  0  0  0  0  0  0  0
    3.4858    2.6993    0.1945 C   0  0  0  0  0  0  0  0  0  0  0  0
    3.4869    4.0608   -0.4113 C   0  0  0  0  0  0  0  0  0  0  0  0
    3.5759    2.5830    1.4464 O   0  0  0  0  0  0  0  0  0  0  0  0
    4.5617   -0.2184    0.4877 C   0  0  0  0  0  0  0  0  0  0  0  0
    5.0911   -1.6255    0.6328 C   0  0  0  0  0  0  0  0  0  0  0  0
    5.2374    0.6530    1.0100 O   0  0  0  0  0  0  0  0  0  0  0  0
    1.8951   -0.2284    0.3272 C   0  0  2  0  0  0  0  0  0  0  0  0
    1.9570   -1.6693    0.9326 C   0  0  0  0  0  0  0  0  0  0  0  0
    1.2869    0.7304    1.3831 C   0  0  0  0  0  0  0  0  0  0  0  0
   -0.1763    0.3686    1.7314 C   0  0  0  0  0  0  0  0  0  0  0  0
   -1.0953    0.2490    0.4718 C   0  0  1  0  0  0  0  0  0  0  0  0
   -0.4584   -0.6437   -0.6416 C   0  0  1  0  0  0  0  0  0  0  0  0
   -1.3104   -0.5550   -1.9171 C   0  0  0  0  0  0  0  0  0  0  0  0
   -2.7382   -1.0620   -1.6680 C   0  0  2  0  0  0  0  0  0  0  0  0
   -3.5143   -1.0367   -2.9994 C   0  0  0  0  0  0  0  0  0  0  0  0
   -3.3852   -0.2861   -0.5130 C   0  0  0  0  0  0  0  0  0  0  0  0
   -4.6878    0.0804   -0.5656 C   0  0  0  0  0  0  0  0  0  0  0  0
   -5.3897    0.6808    0.5764 C   0  0  0  0  0  0  0  0  0  0  0  0
   -6.5926    1.0336    0.4521 O   0  0  0  0  0  0  0  0  0  0  0  0
   -4.7157    0.8138    1.8988 C   0  0  0  0  0  0  0  0  0  0  0  0
   -3.2070    0.9590    1.7091 C   0  0  0  0  0  0  0  0  0  0  0  0
   -2.5863   -0.1548    0.8021 C   0  0  2  0  0  0  0  0  0  0  0  0
   -2.6605   -1.5134    1.5476 C   0  0  0  0  0  0  0  0  0  0  0  0
    0.9004    0.9146   -1.2239 H   0  0  0  0  0  0  0  0  0  0  0  0
    1.5836   -1.9337   -2.0226 H   0  0  0  0  0  0  0  0  0  0  0  0
    1.5101   -0.4230   -3.0153 H   0  0  0  0  0  0  0  0  0  0  0  0
    3.8085   -1.5082   -1.7081 H   0  0  0  0  0  0  0  0  0  0  0  0
    3.7029    0.0841   -2.4786 H   0  0  0  0  0  0  0  0  0  0  0  0
    2.4608    4.4817   -0.3734 H   0  0  0  0  0  0  0  0  0  0  0  0
    4.1786    4.7270    0.1463 H   0  0  0  0  0  0  0  0  0  0  0  0
    3.8188    4.0041   -1.4691 H   0  0  0  0  0  0  0  0  0  0  0  0
    6.1093   -1.6772    0.1932 H   0  0  0  0  0  0  0  0  0  0  0  0
    4.4774   -2.3985    0.1420 H   0  0  0  0  0  0  0  0  0  0  0  0
    5.1629   -1.8804    1.7110 H   0  0  0  0  0  0  0  0  0  0  0  0
    0.9854   -2.0379    1.3055 H   0  0  0  0  0  0  0  0  0  0  0  0
    2.6411   -1.6912    1.8054 H   0  0  0  0  0  0  0  0  0  0  0  0
    2.2823   -2.4183    0.1857 H   0  0  0  0  0  0  0  0  0  0  0  0
    1.9018    0.7189    2.3088 H   0  0  0  0  0  0  0  0  0  0  0  0
    1.2531    1.7676    0.9959 H   0  0  0  0  0  0  0  0  0  0  0  0
   -0.5516    1.1807    2.3875 H   0  0  0  0  0  0  0  0  0  0  0  0
   -0.2020   -0.5535    2.3415 H   0  0  0  0  0  0  0  0  0  0  0  0
   -1.1385    1.2787    0.0454 H   0  0  0  0  0  0  0  0  0  0  0  0
   -0.4312   -1.7076   -0.3364 H   0  0  0  0  0  0  0  0  0  0  0  0
   -0.8437   -1.1807   -2.7089 H   0  0  0  0  0  0  0  0  0  0  0  0
   -1.3419    0.4955   -2.2850 H   0  0  0  0  0  0  0  0  0  0  0  0
   -2.6751   -2.1288   -1.3596 H   0  0  0  0  0  0  0  0  0  0  0  0
   -4.4753   -1.5843   -2.9004 H   0  0  0  0  0  0  0  0  0  0  0  0
   -3.7051    0.0089   -3.3240 H   0  0  0  0  0  0  0  0  0  0  0  0
   -2.9359   -1.5519   -3.7960 H   0  0  0  0  0  0  0  0  0  0  0  0
   -5.2785   -0.0567   -1.4585 H   0  0  0  0  0  0  0  0  0  0  0  0
   -5.1036    1.7110    2.4286 H   0  0  0  0  0  0  0  0  0  0  0  0
   -4.9461   -0.0764    2.5210 H   0  0  0  0  0  0  0  0  0  0  0  0
   -2.7454    0.9507    2.7190 H   0  0  0  0  0  0  0  0  0  0  0  0
   -3.0123    1.9601    1.2630 H   0  0  0  0  0  0  0  0  0  0  0  0
   -2.2830   -1.4280    2.5875 H   0  0  0  0  0  0  0  0  0  0  0  0
   -2.0805   -2.3029    1.0317 H   0  0  0  0  0  0  0  0  0  0  0  0
   -3.7100   -1.8720    1.6064 H   0  0  0  0  0  0  0  0  0  0  0  0
  1  2  1  0
  2  3  1  0
  3  4  1  0
  4  5  1  6
  5  6  1  0
  6  7  1  0
  6  8  2  0
  4  9  1  0
  9 10  1  0
  9 11  2  0
  4 12  1  0
 12 13  1  1
 12 14  1  0
 14 15  1  0
 15 16  1  0
 16 17  1  0
 17 18  1  0
 18 19  1  0
 19 20  1  0
 19 21  1  0
 21 22  2  0
 22 23  1  0
 23 24  2  0
 23 25  1  0
 25 26  1  0
 26 27  1  0
 27 28  1  1
 12  1  1  0
 27 16  1  0
 17  1  1  0
 27 21  1  0
  1 29  1  6
  2 30  1  0
  2 31  1  0
  3 32  1  0
  3 33  1  0
  7 34  1  0
  7 35  1  0
  7 36  1  0
 10 37  1  0
 10 38  1  0
 10 39  1  0
 13 40  1  0
 13 41  1  0
 13 42  1  0
 14 43  1  0
 14 44  1  0
 15 45  1  0
 15 46  1  0
 16 47  1  6
 17 48  1  1
 18 49  1  0
 18 50  1  0
 19 51  1  1
 20 52  1  0
 20 53  1  0
 20 54  1  0
 22 55  1  0
 25 56  1  0
 25 57  1  0
 26 58  1  0
 26 59  1  0
 28 60  1  0
 28 61  1  0
 28 62  1  0
M  END
$$$$
