
     RDKit          3D

126129  0  0  0  0  0  0  0  0999 V2000
    8.3663    1.8483   -2.0932 C   0  0  0  0  0  0  0  0  0  0  0  0
    7.4396    1.0058   -1.4439 O   0  0  0  0  0  0  0  0  0  0  0  0
    6.5492    0.4145   -2.3798 C   0  0  2  0  0  0  0  0  0  0  0  0
    5.1256    0.3922   -1.7695 C   0  0  0  0  0  0  0  0  0  0  0  0
    4.7931   -0.9007   -0.9780 C   0  0  1  0  0  0  0  0  0  0  0  0
    6.0639   -1.5262   -0.3789 C   0  0  0  0  0  0  0  0  0  0  0  0
    7.0773   -1.9201   -1.4719 C   0  0  0  0  0  0  0  0  0  0  0  0
    7.0312   -1.0100   -2.7255 C   0  0  1  0  0  0  0  0  0  0  0  0
    6.1775   -1.5621   -3.6966 O   0  0  0  0  0  0  0  0  0  0  0  0
    3.7893   -0.6077    0.1199 C   0  0  0  0  0  0  0  0  0  0  0  0
    2.4499   -0.5282   -0.0647 C   0  0  0  0  0  0  0  0  0  0  0  0
    1.8166   -0.8248   -1.4050 C   0  0  0  0  0  0  0  0  0  0  0  0
    1.5558   -0.1676    1.1134 C   0  0  1  0  0  0  0  0  0  0  0  0
    1.7855   -1.1104    2.1657 O   0  0  0  0  0  0  0  0  0  0  0  0
    1.2185   -2.3890    2.2444 C   0  0  0  0  0  0  0  0  0  0  0  0
    1.9327   -3.3311    2.6802 O   0  0  0  0  0  0  0  0  0  0  0  0
   -0.2539   -2.6433    1.9936 C   0  0  2  0  0  0  0  0  0  0  0  0
   -0.9805   -2.7301    3.3532 C   0  0  0  0  0  0  0  0  0  0  0  0
   -2.3197   -3.4474    3.2052 C   0  0  0  0  0  0  0  0  0  0  0  0
   -2.1388   -4.8948    2.7194 C   0  0  0  0  0  0  0  0  0  0  0  0
   -0.8827   -5.1057    1.8504 C   0  0  0  0  0  0  0  0  0  0  0  0
   -0.4611   -3.8646    1.1868 N   0  0  0  0  0  0  0  0  0  0  0  0
    0.2049   -3.9855   -0.0810 C   0  0  0  0  0  0  0  0  0  0  0  0
    1.4172   -4.3320   -0.0959 O   0  0  0  0  0  0  0  0  0  0  0  0
   -0.4869   -3.7827   -1.3772 C   0  0  0  0  0  0  0  0  0  0  0  0
    0.1322   -4.1254   -2.4226 O   0  0  0  0  0  0  0  0  0  0  0  0
   -1.8924   -3.2120   -1.5288 C   0  0  2  0  0  0  0  0  0  0  0  0
   -2.0613   -2.7992   -2.8701 O   0  0  0  0  0  0  0  0  0  0  0  0
   -2.0320   -2.1022   -0.6508 O   0  0  0  0  0  0  0  0  0  0  0  0
   -3.2895   -1.4490   -0.7984 C   0  0  1  0  0  0  0  0  0  0  0  0
   -4.4436   -2.3934   -0.3914 C   0  0  2  0  0  0  0  0  0  0  0  0
   -4.3680   -3.6730   -1.2396 C   0  0  0  0  0  0  0  0  0  0  0  0
   -2.9591   -4.2893   -1.1847 C   0  0  1  0  0  0  0  0  0  0  0  0
   -2.8840   -5.5196   -2.1042 C   0  0  0  0  0  0  0  0  0  0  0  0
   -5.6814   -1.7431   -0.6325 O   0  0  0  0  0  0  0  0  0  0  0  0
   -6.6387   -2.1170    0.3343 C   0  0  0  0  0  0  0  0  0  0  0  0
   -3.2800   -0.1503    0.0490 C   0  0  2  0  0  0  0  0  0  0  0  0
   -2.1852    0.8320   -0.4596 C   0  0  0  0  0  0  0  0  0  0  0  0
   -2.6382    1.9581   -1.4318 C   0  0  1  0  0  0  0  0  0  0  0  0
   -3.5280    1.4623   -2.5802 C   0  0  0  0  0  0  0  0  0  0  0  0
   -3.2910    3.1608   -0.7033 C   0  0  0  0  0  0  0  0  0  0  0  0
   -2.3052    3.9317    0.1678 C   0  0  0  0  0  0  0  0  0  0  0  0
   -2.5774    4.0085    1.6499 C   0  0  0  0  0  0  0  0  0  0  0  0
   -1.2418    4.5347   -0.4291 C   0  0  0  0  0  0  0  0  0  0  0  0
   -0.0923    5.3088    0.2084 C   0  0  1  0  0  0  0  0  0  0  0  0
   -0.4827    6.7306    0.6684 C   0  0  0  0  0  0  0  0  0  0  0  0
   -1.0438    7.5640   -0.4555 C   0  0  0  0  0  0  0  0  0  0  0  0
   -1.4472    8.8186   -0.2422 C   0  0  0  0  0  0  0  0  0  0  0  0
    0.6410    4.5363    1.2932 C   0  0  0  0  0  0  0  0  0  0  0  0
    0.2361    4.5841    2.4442 O   0  0  0  0  0  0  0  0  0  0  0  0
    1.9426    3.8093    0.9996 C   0  0  0  0  0  0  0  0  0  0  0  0
    1.7768    2.3432    0.5171 C   0  0  2  0  0  0  0  0  0  0  0  0
    0.6203    2.1975   -0.2632 O   0  0  0  0  0  0  0  0  0  0  0  0
    1.8119    1.2712    1.6521 C   0  0  1  0  0  0  0  0  0  0  0  0
    0.8116    1.5723    2.7818 C   0  0  0  0  0  0  0  0  0  0  0  0
   -2.9878   -0.5100    1.3909 O   0  0  0  0  0  0  0  0  0  0  0  0
   -3.7489    0.2524    2.2991 C   0  0  0  0  0  0  0  0  0  0  0  0
    7.8535    2.7333   -2.5300 H   0  0  0  0  0  0  0  0  0  0  0  0
    9.0959    2.2166   -1.3433 H   0  0  0  0  0  0  0  0  0  0  0  0
    8.9345    1.3020   -2.8780 H   0  0  0  0  0  0  0  0  0  0  0  0
    6.4793    1.0002   -3.3304 H   0  0  0  0  0  0  0  0  0  0  0  0
    4.3859    0.4988   -2.5918 H   0  0  0  0  0  0  0  0  0  0  0  0
    5.0057    1.2891   -1.1208 H   0  0  0  0  0  0  0  0  0  0  0  0
    4.3684   -1.6554   -1.6747 H   0  0  0  0  0  0  0  0  0  0  0  0
    5.7985   -2.4315    0.2107 H   0  0  0  0  0  0  0  0  0  0  0  0
    6.5393   -0.8021    0.3198 H   0  0  0  0  0  0  0  0  0  0  0  0
    6.8999   -2.9761   -1.7726 H   0  0  0  0  0  0  0  0  0  0  0  0
    8.0976   -1.8815   -1.0314 H   0  0  0  0  0  0  0  0  0  0  0  0
    8.0597   -0.9373   -3.1496 H   0  0  0  0  0  0  0  0  0  0  0  0
    6.6672   -2.3173   -4.1160 H   0  0  0  0  0  0  0  0  0  0  0  0
    4.1867   -0.4149    1.1134 H   0  0  0  0  0  0  0  0  0  0  0  0
    0.7118   -0.7641   -1.3587 H   0  0  0  0  0  0  0  0  0  0  0  0
    2.1618   -0.0927   -2.1620 H   0  0  0  0  0  0  0  0  0  0  0  0
    2.0726   -1.8540   -1.7307 H   0  0  0  0  0  0  0  0  0  0  0  0
    0.4970   -0.1954    0.7960 H   0  0  0  0  0  0  0  0  0  0  0  0
   -0.7069   -1.8012    1.4472 H   0  0  0  0  0  0  0  0  0  0  0  0
   -0.3675   -3.2839    4.0995 H   0  0  0  0  0  0  0  0  0  0  0  0
   -1.1508   -1.7047    3.7493 H   0  0  0  0  0  0  0  0  0  0  0  0
   -2.8525   -3.4463    4.1806 H   0  0  0  0  0  0  0  0  0  0  0  0
   -2.9483   -2.8904    2.4845 H   0  0  0  0  0  0  0  0  0  0  0  0
   -2.0744   -5.5697    3.6007 H   0  0  0  0  0  0  0  0  0  0  0  0
   -3.0451   -5.1947    2.1505 H   0  0  0  0  0  0  0  0  0  0  0  0
   -0.0488   -5.4654    2.4919 H   0  0  0  0  0  0  0  0  0  0  0  0
   -1.0895   -5.9008    1.1001 H   0  0  0  0  0  0  0  0  0  0  0  0
   -1.4614   -2.0206   -3.0181 H   0  0  0  0  0  0  0  0  0  0  0  0
   -3.4568   -1.1517   -1.8533 H   0  0  0  0  0  0  0  0  0  0  0  0
   -4.3009   -2.6707    0.6783 H   0  0  0  0  0  0  0  0  0  0  0  0
   -5.1074   -4.4115   -0.8613 H   0  0  0  0  0  0  0  0  0  0  0  0
   -4.6358   -3.4332   -2.2931 H   0  0  0  0  0  0  0  0  0  0  0  0
   -2.7915   -4.6374   -0.1469 H   0  0  0  0  0  0  0  0  0  0  0  0
   -3.0238   -5.2301   -3.1674 H   0  0  0  0  0  0  0  0  0  0  0  0
   -3.6749   -6.2494   -1.8286 H   0  0  0  0  0  0  0  0  0  0  0  0
   -1.9044   -6.0297   -1.9938 H   0  0  0  0  0  0  0  0  0  0  0  0
   -6.3442   -1.7577    1.3443 H   0  0  0  0  0  0  0  0  0  0  0  0
   -6.7971   -3.2175    0.3468 H   0  0  0  0  0  0  0  0  0  0  0  0
   -7.6063   -1.6401    0.0768 H   0  0  0  0  0  0  0  0  0  0  0  0
   -4.2810    0.3326   -0.0508 H   0  0  0  0  0  0  0  0  0  0  0  0
   -1.3693    0.2669   -0.9552 H   0  0  0  0  0  0  0  0  0  0  0  0
   -1.7032    1.3071    0.4194 H   0  0  0  0  0  0  0  0  0  0  0  0
   -1.7149    2.3226   -1.9301 H   0  0  0  0  0  0  0  0  0  0  0  0
   -4.5050    1.0898   -2.2098 H   0  0  0  0  0  0  0  0  0  0  0  0
   -3.7258    2.2930   -3.2909 H   0  0  0  0  0  0  0  0  0  0  0  0
   -3.0078    0.6633   -3.1489 H   0  0  0  0  0  0  0  0  0  0  0  0
   -4.1544    2.7944   -0.1083 H   0  0  0  0  0  0  0  0  0  0  0  0
   -3.7042    3.8718   -1.4521 H   0  0  0  0  0  0  0  0  0  0  0  0
   -2.4927    5.0417    2.0270 H   0  0  0  0  0  0  0  0  0  0  0  0
   -1.8912    3.3377    2.1988 H   0  0  0  0  0  0  0  0  0  0  0  0
   -3.6126    3.6867    1.8829 H   0  0  0  0  0  0  0  0  0  0  0  0
   -1.1740    4.4652   -1.5116 H   0  0  0  0  0  0  0  0  0  0  0  0
    0.6433    5.4642   -0.6125 H   0  0  0  0  0  0  0  0  0  0  0  0
    0.4273    7.2407    1.0548 H   0  0  0  0  0  0  0  0  0  0  0  0
   -1.2142    6.7001    1.4974 H   0  0  0  0  0  0  0  0  0  0  0  0
   -1.1242    7.1526   -1.4578 H   0  0  0  0  0  0  0  0  0  0  0  0
   -1.8480    9.4072   -1.0610 H   0  0  0  0  0  0  0  0  0  0  0  0
   -1.3815    9.2656    0.7453 H   0  0  0  0  0  0  0  0  0  0  0  0
    2.4861    4.3740    0.2114 H   0  0  0  0  0  0  0  0  0  0  0  0
    2.6031    3.8445    1.8931 H   0  0  0  0  0  0  0  0  0  0  0  0
    2.6665    2.1332   -0.1231 H   0  0  0  0  0  0  0  0  0  0  0  0
    0.8246    2.5775   -1.1575 H   0  0  0  0  0  0  0  0  0  0  0  0
    2.8275    1.2952    2.1062 H   0  0  0  0  0  0  0  0  0  0  0  0
    1.1310    2.4650    3.3542 H   0  0  0  0  0  0  0  0  0  0  0  0
    0.7705    0.7372    3.5123 H   0  0  0  0  0  0  0  0  0  0  0  0
   -0.2070    1.7226    2.3717 H   0  0  0  0  0  0  0  0  0  0  0  0
   -3.5831    1.3383    2.1495 H   0  0  0  0  0  0  0  0  0  0  0  0
   -3.4271   -0.0011    3.3298 H   0  0  0  0  0  0  0  0  0  0  0  0
   -4.8296    0.0096    2.2103 H   0  0  0  0  0  0  0  0  0  0  0  0
  1  2  1  0
  2  3  1  0
  3  4  1  0
  4  5  1  0
  5  6  1  0
  6  7  1  0
  7  8  1  0
  8  9  1  0
  5 10  1  0
 10 11  2  0
 11 12  1  0
 11 13  1  0
 13 14  1  0
 14 15  1  0
 15 16  2  0
 15 17  1  0
 17 18  1  0
 18 19  1  0
 19 20  1  0
 20 21  1  0
 21 22  1  0
 22 23  1  0
 23 24  2  0
 23 25  1  0
 25 26  2  0
 25 27  1  0
 27 28  1  6
 27 29  1  0
 29 30  1  0
 30 31  1  0
 31 32  1  0
 32 33  1  0
 33 34  1  0
 31 35  1  0
 35 36  1  0
 30 37  1  0
 37 38  1  0
 38 39  1  0
 39 40  1  0
 39 41  1  0
 41 42  1  0
 42 43  1  0
 42 44  2  0
 44 45  1  0
 45 46  1  0
 46 47  1  0
 47 48  2  3
 45 49  1  0
 49 50  2  0
 49 51  1  0
 51 52  1  0
 52 53  1  0
 52 54  1  0
 54 55  1  0
 37 56  1  0
 56 57  1  0
  8  3  1  0
 54 13  1  0
 22 17  1  0
 33 27  1  0
  1 58  1  0
  1 59  1  0
  1 60  1  0
  3 61  1  6
  4 62  1  0
  4 63  1  0
  5 64  1  6
  6 65  1  0
  6 66  1  0
  7 67  1  0
  7 68  1  0
  8 69  1  6
  9 70  1  0
 10 71  1  0
 12 72  1  0
 12 73  1  0
 12 74  1  0
 13 75  1  6
 17 76  1  6
 18 77  1  0
 18 78  1  0
 19 79  1  0
 19 80  1  0
 20 81  1  0
 20 82  1  0
 21 83  1  0
 21 84  1  0
 28 85  1  0
 30 86  1  6
 31 87  1  1
 32 88  1  0
 32 89  1  0
 33 90  1  1
 34 91  1  0
 34 92  1  0
 34 93  1  0
 36 94  1  0
 36 95  1  0
 36 96  1  0
 37 97  1  1
 38 98  1  0
 38 99  1  0
 39100  1  6
 40101  1  0
 40102  1  0
 40103  1  0
 41104  1  0
 41105  1  0
 43106  1  0
 43107  1  0
 43108  1  0
 44109  1  0
 45110  1  6
 46111  1  0
 46112  1  0
 47113  1  0
 48114  1  0
 48115  1  0
 51116  1  0
 51117  1  0
 52118  1  6
 53119  1  0
 54120  1  1
 55121  1  0
 55122  1  0
 55123  1  0
 57124  1  0
 57125  1  0
 57126  1  0
M  END
$$$$
