
     RDKit          3D

 43 44  0  0  0  0  0  0  0  0999 V2000
   -4.1611    0.6605   -2.2080 O   0  0  0  0  0  0  0  0  0  0  0  0
   -4.2251    0.1550   -0.8919 C   0  0  0  0  0  0  0  0  0  0  0  0
   -2.8323    0.2319   -0.2380 C   0  0  0  0  0  0  0  0  0  0  0  0
   -1.6717    0.2312   -1.0412 C   0  0  0  0  0  0  0  0  0  0  0  0
   -0.3996    0.2547   -0.4653 C   0  0  0  0  0  0  0  0  0  0  0  0
   -0.2498    0.2572    0.9263 C   0  0  0  0  0  0  0  0  0  0  0  0
   -1.3922    0.2221    1.7361 C   0  0  0  0  0  0  0  0  0  0  0  0
   -2.6667    0.1992    1.1634 C   0  0  0  0  0  0  0  0  0  0  0  0
    1.0637    0.2684    1.5116 N   0  0  0  0  0  0  0  0  0  0  0  0
    1.4643   -0.7487    2.4921 C   0  0  0  0  0  0  0  0  0  0  0  0
    1.5218   -2.1405    1.8577 C   0  0  0  0  0  0  0  0  0  0  0  0
    0.2518   -2.5646    1.5105 F   0  0  0  0  0  0  0  0  0  0  0  0
    2.0565   -3.0364    2.7652 F   0  0  0  0  0  0  0  0  0  0  0  0
    2.3190   -2.1172    0.7277 F   0  0  0  0  0  0  0  0  0  0  0  0
    2.1869    1.5249    1.0786 S   0  0  0  0  0  6  0  0  0  0  0  0
    1.4598    2.6414    0.3811 O   0  0  0  0  0  0  0  0  0  0  0  0
    2.8188    2.0877    2.3210 O   0  0  0  0  0  0  0  0  0  0  0  0
    3.4334    0.8730    0.0197 C   0  0  0  0  0  0  0  0  0  0  0  0
    4.5268    0.1851    0.5659 C   0  0  0  0  0  0  0  0  0  0  0  0
    5.5094   -0.3516   -0.2718 C   0  0  0  0  0  0  0  0  0  0  0  0
    5.4050   -0.2035   -1.6578 C   0  0  0  0  0  0  0  0  0  0  0  0
    4.3179    0.4820   -2.2073 C   0  0  0  0  0  0  0  0  0  0  0  0
    3.3335    1.0195   -1.3720 C   0  0  0  0  0  0  0  0  0  0  0  0
   -5.3017    0.9813   -0.1192 C   0  0  0  0  0  0  0  0  0  0  0  0
   -6.4109    1.1790   -0.9245 F   0  0  0  0  0  0  0  0  0  0  0  0
   -5.7249    0.3390    1.0315 F   0  0  0  0  0  0  0  0  0  0  0  0
   -4.7950    2.2232    0.2252 F   0  0  0  0  0  0  0  0  0  0  0  0
   -4.6434   -1.3317   -0.9957 C   0  0  0  0  0  0  0  0  0  0  0  0
   -5.9011   -1.4400   -1.5639 F   0  0  0  0  0  0  0  0  0  0  0  0
   -4.6656   -1.9328    0.2516 F   0  0  0  0  0  0  0  0  0  0  0  0
   -3.7462   -2.0196   -1.7953 F   0  0  0  0  0  0  0  0  0  0  0  0
   -3.8909    1.6157   -2.1567 H   0  0  0  0  0  0  0  0  0  0  0  0
   -1.7426    0.2016   -2.1207 H   0  0  0  0  0  0  0  0  0  0  0  0
    0.4715    0.2460   -1.1062 H   0  0  0  0  0  0  0  0  0  0  0  0
   -1.3002    0.2201    2.8141 H   0  0  0  0  0  0  0  0  0  0  0  0
   -3.5142    0.1505    1.8286 H   0  0  0  0  0  0  0  0  0  0  0  0
    2.4688   -0.5092    2.9015 H   0  0  0  0  0  0  0  0  0  0  0  0
    0.7591   -0.7547    3.3493 H   0  0  0  0  0  0  0  0  0  0  0  0
    4.6163    0.0602    1.6373 H   0  0  0  0  0  0  0  0  0  0  0  0
    6.3507   -0.8835    0.1533 H   0  0  0  0  0  0  0  0  0  0  0  0
    6.1658   -0.6197   -2.3054 H   0  0  0  0  0  0  0  0  0  0  0  0
    4.2374    0.5962   -3.2806 H   0  0  0  0  0  0  0  0  0  0  0  0
    2.4968    1.5467   -1.8116 H   0  0  0  0  0  0  0  0  0  0  0  0
  1  2  1  0
  2  3  1  0
  3  4  2  0
  4  5  1  0
  5  6  2  0
  6  7  1  0
  7  8  2  0
  6  9  1  0
  9 10  1  0
 10 11  1  0
 11 12  1  0
 11 13  1  0
 11 14  1  0
  9 15  1  0
 15 16  2  0
 15 17  2  0
 15 18  1  0
 18 19  2  0
 19 20  1  0
 20 21  2  0
 21 22  1  0
 22 23  2  0
  2 24  1  0
 24 25  1  0
 24 26  1  0
 24 27  1  0
  2 28  1  0
 28 29  1  0
 28 30  1  0
 28 31  1  0
  8  3  1  0
 23 18  1  0
  1 32  1  0
  4 33  1  0
  5 34  1  0
  7 35  1  0
  8 36  1  0
 10 37  1  0
 10 38  1  0
 19 39  1  0
 20 40  1  0
 21 41  1  0
 22 42  1  0
 23 43  1  0
M  END
$$$$
