
     RDKit          3D

 59 61  0  0  0  0  0  0  0  0999 V2000
   -0.4788   -0.7864   -2.5405 C   0  0  2  0  0  0  0  0  0  0  0  0
   -1.1988   -1.3643   -3.7590 C   0  0  0  0  0  0  0  0  0  0  0  0
   -1.6971   -0.1610   -4.5523 C   0  0  0  0  0  0  0  0  0  0  0  0
   -1.7805    0.9855   -3.5538 C   0  0  0  0  0  0  0  0  0  0  0  0
   -0.9653    0.5844   -2.4183 N   0  0  0  0  0  0  0  0  0  0  0  0
   -0.7602    1.4497   -1.2817 C   0  0  0  0  0  0  0  0  0  0  0  0
   -1.2833    2.5971   -1.2766 O   0  0  0  0  0  0  0  0  0  0  0  0
    0.0822    1.0426   -0.0981 C   0  0  0  0  0  0  0  0  0  0  0  0
   -0.6906    1.0048    1.1527 N   0  0  0  0  0  0  0  0  0  0  0  0
   -1.5265   -0.2036    1.3006 C   0  0  0  0  0  0  0  0  0  0  0  0
   -2.8793   -0.0632    0.5428 C   0  0  0  0  0  0  0  0  0  0  0  0
   -3.9927   -0.8776    1.2087 C   0  0  0  0  0  0  0  0  0  0  0  0
   -4.2566   -0.4019    2.6509 C   0  0  0  0  0  0  0  0  0  0  0  0
   -2.9984    0.1448    3.3553 C   0  0  0  0  0  0  0  0  0  0  0  0
   -1.7198   -0.4986    2.8085 C   0  0  0  0  0  0  0  0  0  0  0  0
    1.0154   -0.8132   -2.7303 C   0  0  0  0  0  0  0  0  0  0  0  0
    1.5928    0.1219   -3.3498 O   0  0  0  0  0  0  0  0  0  0  0  0
    1.7760   -1.9143   -2.2172 N   0  0  0  0  0  0  0  0  0  0  0  0
    3.1885   -1.7818   -1.8718 C   0  0  0  0  0  0  0  0  0  0  0  0
    3.3269   -0.9313   -0.6391 C   0  0  0  0  0  0  0  0  0  0  0  0
    3.7607    0.3990   -0.7347 C   0  0  0  0  0  0  0  0  0  0  0  0
    3.7896    1.2150    0.3999 C   0  0  0  0  0  0  0  0  0  0  0  0
    3.3672    0.7198    1.6454 C   0  0  0  0  0  0  0  0  0  0  0  0
    2.9399   -0.6165    1.7386 C   0  0  0  0  0  0  0  0  0  0  0  0
    2.9214   -1.4344    0.6059 C   0  0  0  0  0  0  0  0  0  0  0  0
    3.3627    1.6030    2.8374 C   0  0  0  0  0  0  0  0  0  0  0  0
    4.4044    2.5643    3.0243 N   0  0  0  0  0  0  0  0  0  0  0  0
    2.4116    1.5302    3.7163 N   0  0  0  0  0  0  0  0  0  0  0  0
   -0.7570   -1.3698   -1.6360 H   0  0  0  0  0  0  0  0  0  0  0  0
   -2.0743   -1.9602   -3.4180 H   0  0  0  0  0  0  0  0  0  0  0  0
   -0.5490   -2.0192   -4.3812 H   0  0  0  0  0  0  0  0  0  0  0  0
   -2.6841   -0.3646   -5.0213 H   0  0  0  0  0  0  0  0  0  0  0  0
   -0.9588    0.0889   -5.3459 H   0  0  0  0  0  0  0  0  0  0  0  0
   -1.3869    1.9235   -4.0021 H   0  0  0  0  0  0  0  0  0  0  0  0
   -2.8313    1.1354   -3.2228 H   0  0  0  0  0  0  0  0  0  0  0  0
    0.5967    0.0773   -0.2581 H   0  0  0  0  0  0  0  0  0  0  0  0
    0.8879    1.7976    0.0164 H   0  0  0  0  0  0  0  0  0  0  0  0
   -1.2510    1.8807    1.2763 H   0  0  0  0  0  0  0  0  0  0  0  0
   -0.9882   -1.0856    0.8845 H   0  0  0  0  0  0  0  0  0  0  0  0
   -3.2043    0.9994    0.5025 H   0  0  0  0  0  0  0  0  0  0  0  0
   -2.7603   -0.4143   -0.5034 H   0  0  0  0  0  0  0  0  0  0  0  0
   -3.6991   -1.9505    1.2179 H   0  0  0  0  0  0  0  0  0  0  0  0
   -4.9267   -0.7904    0.6126 H   0  0  0  0  0  0  0  0  0  0  0  0
   -4.6661   -1.2544    3.2355 H   0  0  0  0  0  0  0  0  0  0  0  0
   -5.0325    0.3944    2.6402 H   0  0  0  0  0  0  0  0  0  0  0  0
   -3.0728   -0.0451    4.4479 H   0  0  0  0  0  0  0  0  0  0  0  0
   -2.9392    1.2460    3.2100 H   0  0  0  0  0  0  0  0  0  0  0  0
   -1.7805   -1.5983    2.9676 H   0  0  0  0  0  0  0  0  0  0  0  0
   -0.8432   -0.1372    3.3896 H   0  0  0  0  0  0  0  0  0  0  0  0
    1.2728   -2.7797   -1.9174 H   0  0  0  0  0  0  0  0  0  0  0  0
    3.7516   -1.3544   -2.7299 H   0  0  0  0  0  0  0  0  0  0  0  0
    3.6136   -2.7887   -1.6691 H   0  0  0  0  0  0  0  0  0  0  0  0
    4.0561    0.8124   -1.6909 H   0  0  0  0  0  0  0  0  0  0  0  0
    4.1051    2.2452    0.2940 H   0  0  0  0  0  0  0  0  0  0  0  0
    2.6244   -1.0320    2.6872 H   0  0  0  0  0  0  0  0  0  0  0  0
    2.5684   -2.4546    0.6939 H   0  0  0  0  0  0  0  0  0  0  0  0
    4.3808    3.2154    3.8406 H   0  0  0  0  0  0  0  0  0  0  0  0
    5.2277    2.6008    2.3834 H   0  0  0  0  0  0  0  0  0  0  0  0
    1.6086    0.8683    3.6284 H   0  0  0  0  0  0  0  0  0  0  0  0
  1  2  1  0
  2  3  1  0
  3  4  1  0
  4  5  1  0
  5  6  1  0
  6  7  2  0
  6  8  1  0
  8  9  1  0
  9 10  1  0
 10 11  1  0
 11 12  1  0
 12 13  1  0
 13 14  1  0
 14 15  1  0
  1 16  1  0
 16 17  2  0
 16 18  1  0
 18 19  1  0
 19 20  1  0
 20 21  2  0
 21 22  1  0
 22 23  2  0
 23 24  1  0
 24 25  2  0
 23 26  1  0
 26 27  1  0
 26 28  2  3
  5  1  1  0
 15 10  1  0
 25 20  1  0
  1 29  1  1
  2 30  1  0
  2 31  1  0
  3 32  1  0
  3 33  1  0
  4 34  1  0
  4 35  1  0
  8 36  1  0
  8 37  1  0
  9 38  1  0
 10 39  1  0
 11 40  1  0
 11 41  1  0
 12 42  1  0
 12 43  1  0
 13 44  1  0
 13 45  1  0
 14 46  1  0
 14 47  1  0
 15 48  1  0
 15 49  1  0
 18 50  1  0
 19 51  1  0
 19 52  1  0
 21 53  1  0
 22 54  1  0
 24 55  1  0
 25 56  1  0
 27 57  1  0
 27 58  1  0
 28 59  1  0
M  END
$$$$
