
     RDKit          3D

 92 93  0  0  0  0  0  0  0  0999 V2000
    0.9318    4.8219    3.9451 C   0  0  0  0  0  0  0  0  0  0  0  0
    0.0668    4.1952    3.0226 O   0  0  0  0  0  0  0  0  0  0  0  0
    0.7540    3.2119    2.2594 C   0  0  1  0  0  0  0  0  0  0  0  0
    0.4246    1.8103    2.8507 C   0  0  0  0  0  0  0  0  0  0  0  0
    1.2697    0.5852    2.3837 C   0  0  2  0  0  0  0  0  0  0  0  0
    2.7649    0.8930    2.2328 C   0  0  0  0  0  0  0  0  0  0  0  0
    0.6835   -0.0806    1.1222 C   0  0  0  0  0  0  0  0  0  0  0  0
    1.1801   -1.4960    0.8918 C   0  0  0  0  0  0  0  0  0  0  0  0
    2.1325   -1.7971   -0.0295 C   0  0  0  0  0  0  0  0  0  0  0  0
    2.7727   -0.7702   -0.8066 N   0  0  0  0  0  0  0  0  0  0  0  0
    4.2292   -0.6126   -0.8160 C   0  0  0  0  0  0  0  0  0  0  0  0
    4.6502    0.7475   -1.4034 C   0  0  0  0  0  0  0  0  0  0  0  0
    4.9393    0.6567   -2.8521 N   0  0  0  0  0  0  0  0  0  0  0  0
    3.7038    0.5021   -3.6395 C   0  0  0  0  0  0  0  0  0  0  0  0
    5.6515    1.8671   -3.2939 C   0  0  0  0  0  0  0  0  0  0  0  0
    2.4544   -3.2205   -0.3066 C   0  0  0  0  0  0  0  0  0  0  0  0
    3.3369   -3.5267   -1.1508 O   0  0  0  0  0  0  0  0  0  0  0  0
    1.6916   -4.2919    0.3515 C   0  0  0  0  0  0  0  0  0  0  0  0
    0.7761   -4.0000    1.2802 C   0  0  0  0  0  0  0  0  0  0  0  0
   -0.0420   -5.0356    1.8385 N   0  0  0  0  0  0  0  0  0  0  0  0
   -0.8730   -5.8789    1.0244 C   0  0  0  0  0  0  0  0  0  0  0  0
   -1.1363   -7.0443    1.4243 O   0  0  0  0  0  0  0  0  0  0  0  0
   -1.4538   -5.3998   -0.2583 C   0  0  0  0  0  0  0  0  0  0  0  0
   -1.6148   -6.3796   -1.3917 C   0  0  0  0  0  0  0  0  0  0  0  0
   -1.8808   -4.1241   -0.3591 C   0  0  0  0  0  0  0  0  0  0  0  0
   -2.4928   -3.5415   -1.5760 C   0  0  0  0  0  0  0  0  0  0  0  0
   -2.9000   -2.2658   -1.6802 C   0  0  0  0  0  0  0  0  0  0  0  0
   -2.8299   -1.2282   -0.5751 C   0  0  2  0  0  0  0  0  0  0  0  0
   -3.9151   -1.4524    0.3136 O   0  0  0  0  0  0  0  0  0  0  0  0
   -3.4970   -1.5113    1.6629 C   0  0  0  0  0  0  0  0  0  0  0  0
   -2.9415    0.1907   -1.1935 C   0  0  1  0  0  0  0  0  0  0  0  0
   -4.2440    0.3669   -1.7578 O   0  0  0  0  0  0  0  0  0  0  0  0
   -4.5755    1.4224   -2.6145 C   0  0  0  0  0  0  0  0  0  0  0  0
   -5.9064    1.5318   -3.1106 N   0  0  0  0  0  0  0  0  0  0  0  0
   -3.7106    2.2756   -2.9521 O   0  0  0  0  0  0  0  0  0  0  0  0
   -2.6536    1.3081   -0.1894 C   0  0  0  0  0  0  0  0  0  0  0  0
   -3.7068    1.6707    0.8351 C   0  0  0  0  0  0  0  0  0  0  0  0
   -1.4992    2.0165   -0.2931 C   0  0  0  0  0  0  0  0  0  0  0  0
   -1.1783    3.2771    0.4986 C   0  0  2  0  0  0  0  0  0  0  0  0
   -1.7543    4.4830   -0.2656 C   0  0  0  0  0  0  0  0  0  0  0  0
    0.3699    3.4067    0.7698 C   0  0  1  0  0  0  0  0  0  0  0  0
    0.8502    4.6731    0.3812 O   0  0  0  0  0  0  0  0  0  0  0  0
    0.5439   -2.5955    1.6653 C   0  0  0  0  0  0  0  0  0  0  0  0
   -0.2364   -2.3357    2.6209 O   0  0  0  0  0  0  0  0  0  0  0  0
    0.3365    5.5121    4.5771 H   0  0  0  0  0  0  0  0  0  0  0  0
    1.7004    5.4253    3.4140 H   0  0  0  0  0  0  0  0  0  0  0  0
    1.4172    4.0797    4.6168 H   0  0  0  0  0  0  0  0  0  0  0  0
    1.8602    3.3537    2.3043 H   0  0  0  0  0  0  0  0  0  0  0  0
   -0.6580    1.5932    2.7339 H   0  0  0  0  0  0  0  0  0  0  0  0
    0.5763    1.8883    3.9497 H   0  0  0  0  0  0  0  0  0  0  0  0
    1.1880   -0.1612    3.2055 H   0  0  0  0  0  0  0  0  0  0  0  0
    3.3382   -0.0541    2.1616 H   0  0  0  0  0  0  0  0  0  0  0  0
    2.9579    1.4952    1.3201 H   0  0  0  0  0  0  0  0  0  0  0  0
    3.1365    1.4424    3.1237 H   0  0  0  0  0  0  0  0  0  0  0  0
   -0.4168   -0.1292    1.2340 H   0  0  0  0  0  0  0  0  0  0  0  0
    0.8531    0.5406    0.2354 H   0  0  0  0  0  0  0  0  0  0  0  0
    2.1772   -0.0886   -1.3266 H   0  0  0  0  0  0  0  0  0  0  0  0
    4.7024   -1.4344   -1.3923 H   0  0  0  0  0  0  0  0  0  0  0  0
    4.6020   -0.6792    0.2285 H   0  0  0  0  0  0  0  0  0  0  0  0
    5.5756    1.0524   -0.8640 H   0  0  0  0  0  0  0  0  0  0  0  0
    3.8886    1.5319   -1.1879 H   0  0  0  0  0  0  0  0  0  0  0  0
    2.9692    1.3049   -3.4063 H   0  0  0  0  0  0  0  0  0  0  0  0
    3.2474   -0.4900   -3.4440 H   0  0  0  0  0  0  0  0  0  0  0  0
    3.9297    0.5295   -4.7277 H   0  0  0  0  0  0  0  0  0  0  0  0
    6.6162    1.9654   -2.7510 H   0  0  0  0  0  0  0  0  0  0  0  0
    5.0403    2.7809   -3.1183 H   0  0  0  0  0  0  0  0  0  0  0  0
    5.8978    1.7970   -4.3755 H   0  0  0  0  0  0  0  0  0  0  0  0
    1.8615   -5.3217    0.0605 H   0  0  0  0  0  0  0  0  0  0  0  0
   -0.0376   -5.1754    2.8736 H   0  0  0  0  0  0  0  0  0  0  0  0
   -2.6930   -6.5350   -1.6076 H   0  0  0  0  0  0  0  0  0  0  0  0
   -1.1626   -7.3626   -1.1425 H   0  0  0  0  0  0  0  0  0  0  0  0
   -1.1016   -5.9982   -2.2996 H   0  0  0  0  0  0  0  0  0  0  0  0
   -1.7804   -3.4918    0.5037 H   0  0  0  0  0  0  0  0  0  0  0  0
   -2.6140   -4.1642   -2.4528 H   0  0  0  0  0  0  0  0  0  0  0  0
   -3.3084   -1.9627   -2.6381 H   0  0  0  0  0  0  0  0  0  0  0  0
   -1.8245   -1.3115   -0.1061 H   0  0  0  0  0  0  0  0  0  0  0  0
   -3.1987   -2.5439    1.9303 H   0  0  0  0  0  0  0  0  0  0  0  0
   -4.3595   -1.2444    2.3070 H   0  0  0  0  0  0  0  0  0  0  0  0
   -2.6781   -0.7993    1.9046 H   0  0  0  0  0  0  0  0  0  0  0  0
   -2.1997    0.2418   -2.0245 H   0  0  0  0  0  0  0  0  0  0  0  0
   -6.6279    0.8296   -2.8350 H   0  0  0  0  0  0  0  0  0  0  0  0
   -6.1711    2.3132   -3.7505 H   0  0  0  0  0  0  0  0  0  0  0  0
   -4.6029    1.0245    0.7411 H   0  0  0  0  0  0  0  0  0  0  0  0
   -4.0436    2.7168    0.6925 H   0  0  0  0  0  0  0  0  0  0  0  0
   -3.2996    1.5524    1.8606 H   0  0  0  0  0  0  0  0  0  0  0  0
   -0.8049    1.7558   -1.0875 H   0  0  0  0  0  0  0  0  0  0  0  0
   -1.7092    3.2499    1.4717 H   0  0  0  0  0  0  0  0  0  0  0  0
   -1.2710    4.5859   -1.2609 H   0  0  0  0  0  0  0  0  0  0  0  0
   -1.6009    5.4166    0.3165 H   0  0  0  0  0  0  0  0  0  0  0  0
   -2.8459    4.3652   -0.4261 H   0  0  0  0  0  0  0  0  0  0  0  0
    0.9336    2.6527    0.1852 H   0  0  0  0  0  0  0  0  0  0  0  0
    1.0686    4.6252   -0.5867 H   0  0  0  0  0  0  0  0  0  0  0  0
  1  2  1  0
  2  3  1  0
  3  4  1  0
  4  5  1  0
  5  6  1  0
  5  7  1  0
  7  8  1  0
  8  9  2  0
  9 10  1  0
 10 11  1  0
 11 12  1  0
 12 13  1  0
 13 14  1  0
 13 15  1  0
  9 16  1  0
 16 17  2  0
 16 18  1  0
 18 19  2  0
 19 20  1  0
 20 21  1  0
 21 22  2  0
 21 23  1  0
 23 24  1  0
 23 25  2  0
 25 26  1  0
 26 27  2  0
 27 28  1  0
 28 29  1  0
 29 30  1  0
 28 31  1  0
 31 32  1  0
 32 33  1  0
 33 34  1  0
 33 35  2  0
 31 36  1  0
 36 37  1  0
 36 38  2  0
 38 39  1  0
 39 40  1  0
 39 41  1  0
 41 42  1  0
 19 43  1  0
 43 44  2  0
 41  3  1  0
 43  8  1  0
  1 45  1  0
  1 46  1  0
  1 47  1  0
  3 48  1  6
  4 49  1  0
  4 50  1  0
  5 51  1  1
  6 52  1  0
  6 53  1  0
  6 54  1  0
  7 55  1  0
  7 56  1  0
 10 57  1  0
 11 58  1  0
 11 59  1  0
 12 60  1  0
 12 61  1  0
 14 62  1  0
 14 63  1  0
 14 64  1  0
 15 65  1  0
 15 66  1  0
 15 67  1  0
 18 68  1  0
 20 69  1  0
 24 70  1  0
 24 71  1  0
 24 72  1  0
 25 73  1  0
 26 74  1  0
 27 75  1  0
 28 76  1  1
 30 77  1  0
 30 78  1  0
 30 79  1  0
 31 80  1  6
 34 81  1  0
 34 82  1  0
 37 83  1  0
 37 84  1  0
 37 85  1  0
 38 86  1  0
 39 87  1  1
 40 88  1  0
 40 89  1  0
 40 90  1  0
 41 91  1  6
 42 92  1  0
M  END
$$$$
