
     RDKit          3D

 19 18  0  0  0  0  0  0  0  0999 V2000
    3.0673   -0.2269   -0.2403 C   0  0  0  0  0  0  0  0  0  0  0  0
    1.7682   -0.0915    0.4847 C   0  0  0  0  0  0  0  0  0  0  0  0
    1.7617    0.3008    1.6830 O   0  0  0  0  0  0  0  0  0  0  0  0
    0.5418   -0.4344   -0.1757 N   0  0  0  0  0  0  0  0  0  0  0  0
   -0.7678   -0.2686    0.4667 C   0  0  1  0  0  0  0  0  0  0  0  0
   -1.1849    1.2114    0.4951 C   0  0  0  0  0  0  0  0  0  0  0  0
   -1.1763    1.9671   -1.1657 S   0  0  0  0  0  0  0  0  0  0  0  0
   -1.8137   -1.1186   -0.2063 C   0  0  0  0  0  0  0  0  0  0  0  0
   -2.6796   -1.8845    0.5683 O   0  0  0  0  0  0  0  0  0  0  0  0
   -1.9337   -1.1180   -1.4615 O   0  0  0  0  0  0  0  0  0  0  0  0
    3.2868   -1.3017   -0.4082 H   0  0  0  0  0  0  0  0  0  0  0  0
    3.8933    0.2242    0.3498 H   0  0  0  0  0  0  0  0  0  0  0  0
    3.0037    0.2909   -1.2202 H   0  0  0  0  0  0  0  0  0  0  0  0
    0.5968   -0.7837   -1.1598 H   0  0  0  0  0  0  0  0  0  0  0  0
   -0.6925   -0.6218    1.5191 H   0  0  0  0  0  0  0  0  0  0  0  0
   -2.2025    1.3078    0.9316 H   0  0  0  0  0  0  0  0  0  0  0  0
   -0.4852    1.7812    1.1423 H   0  0  0  0  0  0  0  0  0  0  0  0
   -1.5850    3.2192   -0.6688 H   0  0  0  0  0  0  0  0  0  0  0  0
   -3.3984   -2.4529    0.1363 H   0  0  0  0  0  0  0  0  0  0  0  0
  1  2  1  0
  2  3  2  0
  2  4  1  0
  4  5  1  0
  5  6  1  0
  6  7  1  0
  5  8  1  0
  8  9  1  0
  8 10  2  0
  1 11  1  0
  1 12  1  0
  1 13  1  0
  4 14  1  0
  5 15  1  1
  6 16  1  0
  6 17  1  0
  7 18  1  0
  9 19  1  0
M  END
$$$$
