
     RDKit          3D

 38 38  0  0  0  0  0  0  0  0999 V2000
   -3.5418    1.3028   -2.3639 C   0  0  0  0  0  0  0  0  0  0  0  0
   -3.3773    1.2134   -0.8513 C   0  0  0  0  0  0  0  0  0  0  0  0
   -3.2279   -0.2038   -0.4473 N   0  0  0  0  0  0  0  0  0  0  0  0
   -4.0531   -0.5418    0.7345 C   0  0  0  0  0  0  0  0  0  0  0  0
   -4.1343   -2.0520    0.9599 C   0  0  0  0  0  0  0  0  0  0  0  0
   -1.8047   -0.6178   -0.3538 C   0  0  0  0  0  0  0  0  0  0  0  0
   -1.0886   -0.1424    0.9276 C   0  0  0  0  0  0  0  0  0  0  0  0
    0.3544   -0.3389    0.8047 N   0  0  0  0  0  0  0  0  0  0  0  0
    1.1910    0.5654    0.0632 C   0  0  0  0  0  0  0  0  0  0  0  0
    0.6636    1.5070   -0.5907 O   0  0  0  0  0  0  0  0  0  0  0  0
    2.6647    0.4031    0.0381 C   0  0  0  0  0  0  0  0  0  0  0  0
    3.4046    0.8953   -1.0498 C   0  0  0  0  0  0  0  0  0  0  0  0
    4.7934    0.7529   -1.0863 C   0  0  0  0  0  0  0  0  0  0  0  0
    5.4734    0.1243   -0.0344 C   0  0  0  0  0  0  0  0  0  0  0  0
    6.8989   -0.0082   -0.0995 N   0  0  0  0  0  0  0  0  0  0  0  0
    4.7410   -0.3598    1.0677 C   0  0  0  0  0  0  0  0  0  0  0  0
    5.5313   -1.1423    2.4315 Cl  0  0  0  0  0  0  0  0  0  0  0  0
    3.3482   -0.2159    1.0997 C   0  0  0  0  0  0  0  0  0  0  0  0
   -3.6836    2.3628   -2.6631 H   0  0  0  0  0  0  0  0  0  0  0  0
   -4.4300    0.7180   -2.6844 H   0  0  0  0  0  0  0  0  0  0  0  0
   -2.6405    0.9067   -2.8768 H   0  0  0  0  0  0  0  0  0  0  0  0
   -4.2734    1.6850   -0.3893 H   0  0  0  0  0  0  0  0  0  0  0  0
   -2.5034    1.8294   -0.5484 H   0  0  0  0  0  0  0  0  0  0  0  0
   -5.0968   -0.1950    0.5660 H   0  0  0  0  0  0  0  0  0  0  0  0
   -3.6824   -0.0308    1.6489 H   0  0  0  0  0  0  0  0  0  0  0  0
   -3.1654   -2.4526    1.3221 H   0  0  0  0  0  0  0  0  0  0  0  0
   -4.4178   -2.5650    0.0164 H   0  0  0  0  0  0  0  0  0  0  0  0
   -4.9041   -2.2713    1.7296 H   0  0  0  0  0  0  0  0  0  0  0  0
   -1.7382   -1.7247   -0.4148 H   0  0  0  0  0  0  0  0  0  0  0  0
   -1.2547   -0.2459   -1.2453 H   0  0  0  0  0  0  0  0  0  0  0  0
   -1.4505   -0.7365    1.7934 H   0  0  0  0  0  0  0  0  0  0  0  0
   -1.2995    0.9249    1.1464 H   0  0  0  0  0  0  0  0  0  0  0  0
    0.7689   -1.1829    1.2586 H   0  0  0  0  0  0  0  0  0  0  0  0
    2.9072    1.3809   -1.8803 H   0  0  0  0  0  0  0  0  0  0  0  0
    5.3416    1.1337   -1.9390 H   0  0  0  0  0  0  0  0  0  0  0  0
    7.4283    0.3586   -0.9218 H   0  0  0  0  0  0  0  0  0  0  0  0
    7.4463   -0.4698    0.6592 H   0  0  0  0  0  0  0  0  0  0  0  0
    2.8110   -0.5671    1.9706 H   0  0  0  0  0  0  0  0  0  0  0  0
  1  2  1  0
  2  3  1  0
  3  4  1  0
  4  5  1  0
  3  6  1  0
  6  7  1  0
  7  8  1  0
  8  9  1  0
  9 10  2  0
  9 11  1  0
 11 12  2  0
 12 13  1  0
 13 14  2  0
 14 15  1  0
 14 16  1  0
 16 17  1  0
 16 18  2  0
 18 11  1  0
  1 19  1  0
  1 20  1  0
  1 21  1  0
  2 22  1  0
  2 23  1  0
  4 24  1  0
  4 25  1  0
  5 26  1  0
  5 27  1  0
  5 28  1  0
  6 29  1  0
  6 30  1  0
  7 31  1  0
  7 32  1  0
  8 33  1  0
 12 34  1  0
 13 35  1  0
 15 36  1  0
 15 37  1  0
 18 38  1  0
M  END
$$$$
