
     RDKit          3D

 98101  0  0  0  0  0  0  0  0999 V2000
    5.0423    1.8108    0.9843 C   0  0  0  0  0  0  0  0  0  0  0  0
    3.5939    2.1894    0.6317 C   0  0  0  0  0  0  0  0  0  0  0  0
    2.9662    2.9473    1.8133 C   0  0  0  0  0  0  0  0  0  0  0  0
    2.7524    0.9306    0.2616 C   0  0  2  0  0  0  0  0  0  0  0  0
    3.4275    0.1012   -0.7446 N   0  0  0  0  0  0  0  0  0  0  0  0
    3.8184    0.5826   -2.0438 C   0  0  0  0  0  0  0  0  0  0  0  0
    3.3272    1.6560   -2.4876 O   0  0  0  0  0  0  0  0  0  0  0  0
    4.8022   -0.1220   -2.8283 N   0  0  0  0  0  0  0  0  0  0  0  0
    5.0278   -1.5554   -2.6239 C   0  0  0  0  0  0  0  0  0  0  0  0
    5.6386    0.6290   -3.7739 C   0  0  0  0  0  0  0  0  0  0  0  0
    6.5406    1.5564   -3.0173 C   0  0  0  0  0  0  0  0  0  0  0  0
    6.3009    2.9235   -2.8992 C   0  0  0  0  0  0  0  0  0  0  0  0
    7.4530    3.5568   -1.8531 S   0  0  0  0  0  0  0  0  0  0  0  0
    8.2130    2.0732   -1.6059 C   0  0  0  0  0  0  0  0  0  0  0  0
    7.5896    1.0880   -2.2880 N   0  0  0  0  0  0  0  0  0  0  0  0
    9.3598    1.8223   -0.6665 C   0  0  0  0  0  0  0  0  0  0  0  0
   10.5089    2.8018   -0.9259 C   0  0  0  0  0  0  0  0  0  0  0  0
    8.8844    1.9046    0.7865 C   0  0  0  0  0  0  0  0  0  0  0  0
    1.3541    1.2557   -0.2091 C   0  0  0  0  0  0  0  0  0  0  0  0
    1.1198    2.3422   -0.8068 O   0  0  0  0  0  0  0  0  0  0  0  0
    0.3041    0.2944   -0.0279 N   0  0  0  0  0  0  0  0  0  0  0  0
   -1.0574    0.5098   -0.5312 C   0  0  2  0  0  0  0  0  0  0  0  0
   -2.0565   -0.3451    0.2866 C   0  0  0  0  0  0  0  0  0  0  0  0
   -3.5414    0.0100    0.0200 C   0  0  2  0  0  0  0  0  0  0  0  0
   -3.7720    1.3649    0.3238 O   0  0  0  0  0  0  0  0  0  0  0  0
   -4.5191   -0.8944    0.8200 C   0  0  2  0  0  0  0  0  0  0  0  0
   -4.5769   -2.3303    0.2510 C   0  0  0  0  0  0  0  0  0  0  0  0
   -5.5087   -3.2016    1.0542 C   0  0  0  0  0  0  0  0  0  0  0  0
   -5.0803   -3.7594    2.2704 C   0  0  0  0  0  0  0  0  0  0  0  0
   -5.9592   -4.5254    3.0423 C   0  0  0  0  0  0  0  0  0  0  0  0
   -7.2715   -4.7343    2.6096 C   0  0  0  0  0  0  0  0  0  0  0  0
   -7.7076   -4.1769    1.4046 C   0  0  0  0  0  0  0  0  0  0  0  0
   -6.8317   -3.4114    0.6289 C   0  0  0  0  0  0  0  0  0  0  0  0
   -5.8643   -0.3064    0.7831 N   0  0  0  0  0  0  0  0  0  0  0  0
   -6.7132   -0.2193    1.9339 C   0  0  0  0  0  0  0  0  0  0  0  0
   -6.2875   -0.5658    3.0701 O   0  0  0  0  0  0  0  0  0  0  0  0
   -8.0246    0.2425    1.7794 O   0  0  0  0  0  0  0  0  0  0  0  0
   -8.9437    0.3643    2.8624 C   0  0  0  0  0  0  0  0  0  0  0  0
   -8.5517    1.4982    3.7561 C   0  0  0  0  0  0  0  0  0  0  0  0
   -8.5130    2.8403    3.4011 C   0  0  0  0  0  0  0  0  0  0  0  0
   -8.0978    3.6764    4.3896 N   0  0  0  0  0  0  0  0  0  0  0  0
   -7.8019    3.0136    5.5301 C   0  0  0  0  0  0  0  0  0  0  0  0
   -8.0439    1.3581    5.3524 S   0  0  0  0  0  0  0  0  0  0  0  0
   -1.1094    0.2352   -2.0546 C   0  0  0  0  0  0  0  0  0  0  0  0
   -0.8093   -1.2013   -2.4141 C   0  0  0  0  0  0  0  0  0  0  0  0
   -1.8553   -2.1168   -2.6256 C   0  0  0  0  0  0  0  0  0  0  0  0
   -1.5738   -3.4529   -2.9253 C   0  0  0  0  0  0  0  0  0  0  0  0
   -0.2486   -3.8849   -3.0220 C   0  0  0  0  0  0  0  0  0  0  0  0
    0.7974   -2.9807   -2.8215 C   0  0  0  0  0  0  0  0  0  0  0  0
    0.5203   -1.6440   -2.5196 C   0  0  0  0  0  0  0  0  0  0  0  0
    5.5558    1.3615    0.1089 H   0  0  0  0  0  0  0  0  0  0  0  0
    5.0641    1.0850    1.8253 H   0  0  0  0  0  0  0  0  0  0  0  0
    5.6179    2.7153    1.2759 H   0  0  0  0  0  0  0  0  0  0  0  0
    3.6315    2.8839   -0.2355 H   0  0  0  0  0  0  0  0  0  0  0  0
    3.5723    3.8454    2.0590 H   0  0  0  0  0  0  0  0  0  0  0  0
    2.9127    2.2963    2.7124 H   0  0  0  0  0  0  0  0  0  0  0  0
    1.9422    3.2929    1.5617 H   0  0  0  0  0  0  0  0  0  0  0  0
    2.6525    0.3224    1.1891 H   0  0  0  0  0  0  0  0  0  0  0  0
    3.7002   -0.8631   -0.4535 H   0  0  0  0  0  0  0  0  0  0  0  0
    5.6788   -1.9828   -3.4150 H   0  0  0  0  0  0  0  0  0  0  0  0
    4.0589   -2.0965   -2.6520 H   0  0  0  0  0  0  0  0  0  0  0  0
    5.5216   -1.7224   -1.6439 H   0  0  0  0  0  0  0  0  0  0  0  0
    6.2683   -0.0524   -4.3847 H   0  0  0  0  0  0  0  0  0  0  0  0
    4.9947    1.1943   -4.4824 H   0  0  0  0  0  0  0  0  0  0  0  0
    5.4970    3.4749   -3.3683 H   0  0  0  0  0  0  0  0  0  0  0  0
    9.7433    0.7936   -0.8460 H   0  0  0  0  0  0  0  0  0  0  0  0
   10.8336    2.7367   -1.9865 H   0  0  0  0  0  0  0  0  0  0  0  0
   11.3772    2.5484   -0.2811 H   0  0  0  0  0  0  0  0  0  0  0  0
   10.1979    3.8461   -0.7077 H   0  0  0  0  0  0  0  0  0  0  0  0
    9.7256    1.6822    1.4771 H   0  0  0  0  0  0  0  0  0  0  0  0
    8.4906    2.9182    1.0166 H   0  0  0  0  0  0  0  0  0  0  0  0
    8.0820    1.1578    0.9674 H   0  0  0  0  0  0  0  0  0  0  0  0
    0.5317   -0.6039    0.4568 H   0  0  0  0  0  0  0  0  0  0  0  0
   -1.3208    1.5780   -0.3678 H   0  0  0  0  0  0  0  0  0  0  0  0
   -1.8627   -1.4164    0.0852 H   0  0  0  0  0  0  0  0  0  0  0  0
   -1.8491   -0.1866    1.3681 H   0  0  0  0  0  0  0  0  0  0  0  0
   -3.7635   -0.1283   -1.0575 H   0  0  0  0  0  0  0  0  0  0  0  0
   -3.6138    1.4844    1.2971 H   0  0  0  0  0  0  0  0  0  0  0  0
   -4.1561   -0.9425    1.8710 H   0  0  0  0  0  0  0  0  0  0  0  0
   -3.5720   -2.7989    0.2640 H   0  0  0  0  0  0  0  0  0  0  0  0
   -4.9041   -2.3003   -0.8118 H   0  0  0  0  0  0  0  0  0  0  0  0
   -4.0695   -3.5939    2.6224 H   0  0  0  0  0  0  0  0  0  0  0  0
   -5.6242   -4.9529    3.9785 H   0  0  0  0  0  0  0  0  0  0  0  0
   -7.9515   -5.3250    3.2098 H   0  0  0  0  0  0  0  0  0  0  0  0
   -8.7261   -4.3340    1.0738 H   0  0  0  0  0  0  0  0  0  0  0  0
   -7.1871   -2.9737   -0.2957 H   0  0  0  0  0  0  0  0  0  0  0  0
   -6.2750   -0.0582   -0.1456 H   0  0  0  0  0  0  0  0  0  0  0  0
   -8.9886   -0.5878    3.4344 H   0  0  0  0  0  0  0  0  0  0  0  0
   -9.9551    0.5656    2.4521 H   0  0  0  0  0  0  0  0  0  0  0  0
   -8.7854    3.2031    2.4188 H   0  0  0  0  0  0  0  0  0  0  0  0
   -7.4534    3.5007    6.4305 H   0  0  0  0  0  0  0  0  0  0  0  0
   -2.0992    0.5320   -2.4606 H   0  0  0  0  0  0  0  0  0  0  0  0
   -0.3755    0.8945   -2.5668 H   0  0  0  0  0  0  0  0  0  0  0  0
   -2.8872   -1.7996   -2.5553 H   0  0  0  0  0  0  0  0  0  0  0  0
   -2.3837   -4.1536   -3.0820 H   0  0  0  0  0  0  0  0  0  0  0  0
   -0.0324   -4.9196   -3.2542 H   0  0  0  0  0  0  0  0  0  0  0  0
    1.8231   -3.3163   -2.8993 H   0  0  0  0  0  0  0  0  0  0  0  0
    1.3402   -0.9552   -2.3695 H   0  0  0  0  0  0  0  0  0  0  0  0
  1  2  1  0
  2  3  1  0
  2  4  1  0
  4  5  1  0
  5  6  1  0
  6  7  2  0
  6  8  1  0
  8  9  1  0
  8 10  1  0
 10 11  1  0
 11 12  2  0
 12 13  1  0
 13 14  1  0
 14 15  2  0
 14 16  1  0
 16 17  1  0
 16 18  1  0
  4 19  1  0
 19 20  2  0
 19 21  1  0
 21 22  1  0
 22 23  1  0
 23 24  1  0
 24 25  1  0
 24 26  1  0
 26 27  1  0
 27 28  1  0
 28 29  2  0
 29 30  1  0
 30 31  2  0
 31 32  1  0
 32 33  2  0
 26 34  1  0
 34 35  1  0
 35 36  2  0
 35 37  1  0
 37 38  1  0
 38 39  1  0
 39 40  2  0
 40 41  1  0
 41 42  2  0
 42 43  1  0
 22 44  1  0
 44 45  1  0
 45 46  2  0
 46 47  1  0
 47 48  2  0
 48 49  1  0
 49 50  2  0
 15 11  1  0
 33 28  1  0
 43 39  1  0
 50 45  1  0
  1 51  1  0
  1 52  1  0
  1 53  1  0
  2 54  1  0
  3 55  1  0
  3 56  1  0
  3 57  1  0
  4 58  1  1
  5 59  1  0
  9 60  1  0
  9 61  1  0
  9 62  1  0
 10 63  1  0
 10 64  1  0
 12 65  1  0
 16 66  1  0
 17 67  1  0
 17 68  1  0
 17 69  1  0
 18 70  1  0
 18 71  1  0
 18 72  1  0
 21 73  1  0
 22 74  1  6
 23 75  1  0
 23 76  1  0
 24 77  1  6
 25 78  1  0
 26 79  1  1
 27 80  1  0
 27 81  1  0
 29 82  1  0
 30 83  1  0
 31 84  1  0
 32 85  1  0
 33 86  1  0
 34 87  1  0
 38 88  1  0
 38 89  1  0
 40 90  1  0
 42 91  1  0
 44 92  1  0
 44 93  1  0
 46 94  1  0
 47 95  1  0
 48 96  1  0
 49 97  1  0
 50 98  1  0
M  END
$$$$
