
     RDKit          3D

 50 52  0  0  0  0  0  0  0  0999 V2000
   -6.9407   -4.0559    1.6411 Cl  0  0  0  0  0  0  0  0  0  0  0  0
   -6.4444   -2.5602    0.8710 C   0  0  0  0  0  0  0  0  0  0  0  0
   -6.6373   -2.3824   -0.5031 C   0  0  0  0  0  0  0  0  0  0  0  0
   -6.2410   -1.1911   -1.1187 C   0  0  0  0  0  0  0  0  0  0  0  0
   -5.6518   -0.1656   -0.3611 C   0  0  0  0  0  0  0  0  0  0  0  0
   -5.1998    1.1105   -1.0197 C   0  0  0  0  0  0  0  0  0  0  0  0
   -3.7880    1.1948   -1.0141 O   0  0  0  0  0  0  0  0  0  0  0  0
   -3.2530    0.5678   -2.1624 C   0  0  0  0  0  0  0  0  0  0  0  0
   -1.7312    0.5349   -2.0573 C   0  0  0  0  0  0  0  0  0  0  0  0
   -1.1981    1.9026   -1.9844 N   0  0  0  0  0  0  0  0  0  0  0  0
    0.2365    1.9009   -1.6646 C   0  0  0  0  0  0  0  0  0  0  0  0
    0.4436    1.9487   -0.1483 C   0  0  0  0  0  0  0  0  0  0  0  0
    1.8778    1.9805    0.1637 N   0  0  0  0  0  0  0  0  0  0  0  0
    2.4740    0.3833    0.5243 S   0  0  0  0  0  6  0  0  0  0  0  0
    1.8946   -0.0641    1.8380 O   0  0  0  0  0  0  0  0  0  0  0  0
    2.0602   -0.5702   -0.5619 O   0  0  0  0  0  0  0  0  0  0  0  0
    4.2439    0.3921    0.6388 C   0  0  0  0  0  0  0  0  0  0  0  0
    4.9282    1.5917    0.3810 C   0  0  0  0  0  0  0  0  0  0  0  0
    6.3190    1.6544    0.4628 C   0  0  0  0  0  0  0  0  0  0  0  0
    7.0552    0.5216    0.8005 C   0  0  0  0  0  0  0  0  0  0  0  0
    6.4024   -0.6907    1.0562 C   0  0  0  0  0  0  0  0  0  0  0  0
    7.1415   -1.8342    1.3911 C   0  0  0  0  0  0  0  0  0  0  0  0
    6.5083   -3.0102    1.6335 N   0  0  0  0  0  0  0  0  0  0  0  0
    5.1575   -3.1220    1.5616 C   0  0  0  0  0  0  0  0  0  0  0  0
    4.3744   -2.0139    1.2329 C   0  0  0  0  0  0  0  0  0  0  0  0
    4.9875   -0.7711    0.9758 C   0  0  0  0  0  0  0  0  0  0  0  0
   -5.4548   -0.3528    1.0164 C   0  0  0  0  0  0  0  0  0  0  0  0
   -5.8522   -1.5450    1.6295 C   0  0  0  0  0  0  0  0  0  0  0  0
   -7.0917   -3.1668   -1.0949 H   0  0  0  0  0  0  0  0  0  0  0  0
   -6.3905   -1.0705   -2.1845 H   0  0  0  0  0  0  0  0  0  0  0  0
   -5.5962    1.9645   -0.4305 H   0  0  0  0  0  0  0  0  0  0  0  0
   -5.6376    1.2247   -2.0398 H   0  0  0  0  0  0  0  0  0  0  0  0
   -3.6129   -0.4827   -2.2502 H   0  0  0  0  0  0  0  0  0  0  0  0
   -3.5380    1.1285   -3.0814 H   0  0  0  0  0  0  0  0  0  0  0  0
   -1.4561   -0.0443   -1.1487 H   0  0  0  0  0  0  0  0  0  0  0  0
   -1.3168    0.0084   -2.9468 H   0  0  0  0  0  0  0  0  0  0  0  0
   -1.3145    2.3367   -2.9306 H   0  0  0  0  0  0  0  0  0  0  0  0
    0.7520    1.0213   -2.1101 H   0  0  0  0  0  0  0  0  0  0  0  0
    0.7094    2.8082   -2.1032 H   0  0  0  0  0  0  0  0  0  0  0  0
   -0.0683    1.0973    0.3512 H   0  0  0  0  0  0  0  0  0  0  0  0
   -0.0360    2.8785    0.2324 H   0  0  0  0  0  0  0  0  0  0  0  0
    2.0072    2.5457    1.0346 H   0  0  0  0  0  0  0  0  0  0  0  0
    4.3897    2.4901    0.1128 H   0  0  0  0  0  0  0  0  0  0  0  0
    6.8290    2.5880    0.2625 H   0  0  0  0  0  0  0  0  0  0  0  0
    8.1350    0.5919    0.8590 H   0  0  0  0  0  0  0  0  0  0  0  0
    8.2217   -1.7942    1.4590 H   0  0  0  0  0  0  0  0  0  0  0  0
    4.6879   -4.0763    1.7597 H   0  0  0  0  0  0  0  0  0  0  0  0
    3.3041   -2.1483    1.1824 H   0  0  0  0  0  0  0  0  0  0  0  0
   -4.9923    0.4238    1.6132 H   0  0  0  0  0  0  0  0  0  0  0  0
   -5.6975   -1.6792    2.6925 H   0  0  0  0  0  0  0  0  0  0  0  0
  1  2  1  0
  2  3  2  0
  3  4  1  0
  4  5  2  0
  5  6  1  0
  6  7  1  0
  7  8  1  0
  8  9  1  0
  9 10  1  0
 10 11  1  0
 11 12  1  0
 12 13  1  0
 13 14  1  0
 14 15  2  0
 14 16  2  0
 14 17  1  0
 17 18  2  0
 18 19  1  0
 19 20  2  0
 20 21  1  0
 21 22  2  0
 22 23  1  0
 23 24  2  0
 24 25  1  0
 25 26  2  0
  5 27  1  0
 27 28  2  0
 28  2  1  0
 26 17  1  0
 26 21  1  0
  3 29  1  0
  4 30  1  0
  6 31  1  0
  6 32  1  0
  8 33  1  0
  8 34  1  0
  9 35  1  0
  9 36  1  0
 10 37  1  0
 11 38  1  0
 11 39  1  0
 12 40  1  0
 12 41  1  0
 13 42  1  0
 18 43  1  0
 19 44  1  0
 20 45  1  0
 22 46  1  0
 24 47  1  0
 25 48  1  0
 27 49  1  0
 28 50  1  0
M  END
$$$$
