
     RDKit          3D

 49 50  0  0  0  0  0  0  0  0999 V2000
    3.1637   -2.1731   -1.2443 C   0  0  0  0  0  0  0  0  0  0  0  0
    4.2366   -1.5016   -0.4273 C   0  0  0  0  0  0  0  0  0  0  0  0
    4.9475   -2.2595    0.5205 C   0  0  0  0  0  0  0  0  0  0  0  0
    5.9439   -1.6696    1.2999 C   0  0  0  0  0  0  0  0  0  0  0  0
    6.2433   -0.3171    1.1457 C   0  0  0  0  0  0  0  0  0  0  0  0
    5.5514    0.4503    0.2076 C   0  0  0  0  0  0  0  0  0  0  0  0
    4.5529   -0.1281   -0.5970 C   0  0  0  0  0  0  0  0  0  0  0  0
    3.8123    0.7533   -1.5768 C   0  0  0  0  0  0  0  0  0  0  0  0
    2.5483    1.2738   -0.9603 C   0  0  0  0  0  0  0  0  0  0  0  0
    2.6195    2.0668    0.0178 O   0  0  0  0  0  0  0  0  0  0  0  0
    1.2720    0.9008   -1.5025 N   0  0  0  0  0  0  0  0  0  0  0  0
    0.0285    1.0463   -0.7953 C   0  0  0  0  0  0  0  0  0  0  0  0
   -0.0436    0.8773    0.5896 C   0  0  0  0  0  0  0  0  0  0  0  0
   -1.2640    0.9940    1.2736 C   0  0  0  0  0  0  0  0  0  0  0  0
   -1.2322    0.8464    2.7755 C   0  0  0  0  0  0  0  0  0  0  0  0
   -2.4560    1.2990    0.5535 C   0  0  0  0  0  0  0  0  0  0  0  0
   -2.3791    1.4341   -0.8646 C   0  0  0  0  0  0  0  0  0  0  0  0
   -3.5736    1.7626   -1.7241 C   0  0  0  0  0  0  0  0  0  0  0  0
   -1.1391    1.3039   -1.5109 C   0  0  0  0  0  0  0  0  0  0  0  0
   -4.0147    1.4700    1.4277 S   0  0  0  0  0  6  0  0  0  0  0  0
   -5.0112    2.2765    0.6439 O   0  0  0  0  0  0  0  0  0  0  0  0
   -3.7866    2.2030    2.7193 O   0  0  0  0  0  0  0  0  0  0  0  0
   -4.6970   -0.0912    1.7879 N   0  0  0  0  0  0  0  0  0  0  0  0
   -5.0660   -0.7804    0.5520 C   0  0  0  0  0  0  0  0  0  0  0  0
   -5.6841   -2.1018    0.8772 C   0  0  0  0  0  0  0  0  0  0  0  0
   -4.8906   -3.2433    0.9316 O   0  0  0  0  0  0  0  0  0  0  0  0
   -6.9136   -2.1754    1.1432 O   0  0  0  0  0  0  0  0  0  0  0  0
    3.0189   -3.2315   -0.9400 H   0  0  0  0  0  0  0  0  0  0  0  0
    3.4440   -2.1625   -2.3180 H   0  0  0  0  0  0  0  0  0  0  0  0
    2.1964   -1.6491   -1.1057 H   0  0  0  0  0  0  0  0  0  0  0  0
    4.7294   -3.3109    0.6615 H   0  0  0  0  0  0  0  0  0  0  0  0
    6.4826   -2.2623    2.0280 H   0  0  0  0  0  0  0  0  0  0  0  0
    7.0121    0.1389    1.7560 H   0  0  0  0  0  0  0  0  0  0  0  0
    5.7944    1.5013    0.1096 H   0  0  0  0  0  0  0  0  0  0  0  0
    4.4447    1.6172   -1.8762 H   0  0  0  0  0  0  0  0  0  0  0  0
    3.5929    0.1976   -2.5119 H   0  0  0  0  0  0  0  0  0  0  0  0
    1.2403    0.5513   -2.4871 H   0  0  0  0  0  0  0  0  0  0  0  0
    0.8555    0.6310    1.1401 H   0  0  0  0  0  0  0  0  0  0  0  0
   -2.0648    0.2146    3.1370 H   0  0  0  0  0  0  0  0  0  0  0  0
   -1.2846    1.8485    3.2492 H   0  0  0  0  0  0  0  0  0  0  0  0
   -0.2954    0.3573    3.1183 H   0  0  0  0  0  0  0  0  0  0  0  0
   -3.3451    1.6567   -2.8061 H   0  0  0  0  0  0  0  0  0  0  0  0
   -3.8825    2.8142   -1.5505 H   0  0  0  0  0  0  0  0  0  0  0  0
   -4.4126    1.0730   -1.5132 H   0  0  0  0  0  0  0  0  0  0  0  0
   -1.0724    1.4195   -2.5865 H   0  0  0  0  0  0  0  0  0  0  0  0
   -3.9565   -0.6555    2.2621 H   0  0  0  0  0  0  0  0  0  0  0  0
   -4.1686   -0.9474   -0.0837 H   0  0  0  0  0  0  0  0  0  0  0  0
   -5.8061   -0.1756   -0.0151 H   0  0  0  0  0  0  0  0  0  0  0  0
   -5.2911   -4.1435    1.1671 H   0  0  0  0  0  0  0  0  0  0  0  0
  1  2  1  0
  2  3  2  0
  3  4  1  0
  4  5  2  0
  5  6  1  0
  6  7  2  0
  7  8  1  0
  8  9  1  0
  9 10  2  0
  9 11  1  0
 11 12  1  0
 12 13  2  0
 13 14  1  0
 14 15  1  0
 14 16  2  0
 16 17  1  0
 17 18  1  0
 17 19  2  0
 16 20  1  0
 20 21  2  0
 20 22  2  0
 20 23  1  0
 23 24  1  0
 24 25  1  0
 25 26  1  0
 25 27  2  0
  7  2  1  0
 19 12  1  0
  1 28  1  0
  1 29  1  0
  1 30  1  0
  3 31  1  0
  4 32  1  0
  5 33  1  0
  6 34  1  0
  8 35  1  0
  8 36  1  0
 11 37  1  0
 13 38  1  0
 15 39  1  0
 15 40  1  0
 15 41  1  0
 18 42  1  0
 18 43  1  0
 18 44  1  0
 19 45  1  0
 23 46  1  0
 24 47  1  0
 24 48  1  0
 26 49  1  0
M  END
$$$$
