
     RDKit          3D

 53 53  0  0  0  0  0  0  0  0999 V2000
    6.7727    1.2129   -0.6129 N   0  0  0  0  0  0  0  0  0  0  0  0
    5.8341    0.1489   -0.2585 C   0  0  0  0  0  0  0  0  0  0  0  0
    5.4669   -0.6866   -1.4873 C   0  0  0  0  0  0  0  0  0  0  0  0
    4.5058   -1.7733   -1.1118 C   0  0  0  0  0  0  0  0  0  0  0  0
    4.9371   -2.9409   -0.9103 O   0  0  0  0  0  0  0  0  0  0  0  0
    3.1126   -1.4732   -0.9432 N   0  0  0  0  0  0  0  0  0  0  0  0
    2.1526   -2.4626   -0.4398 C   0  0  1  0  0  0  0  0  0  0  0  0
    2.3628   -2.7254    1.0627 C   0  0  0  0  0  0  0  0  0  0  0  0
    2.2804   -1.5408    1.8098 O   0  0  0  0  0  0  0  0  0  0  0  0
    0.7333   -2.0311   -0.7226 C   0  0  0  0  0  0  0  0  0  0  0  0
   -0.0275   -2.8084   -1.3614 O   0  0  0  0  0  0  0  0  0  0  0  0
    0.2394   -0.7627   -0.2617 N   0  0  0  0  0  0  0  0  0  0  0  0
   -1.1514   -0.3519   -0.4404 C   0  0  0  0  0  0  0  0  0  0  0  0
   -2.0578   -1.0922    0.5466 C   0  0  0  0  0  0  0  0  0  0  0  0
   -3.4882   -0.6535    0.3837 C   0  0  0  0  0  0  0  0  0  0  0  0
   -4.3227   -1.2928   -0.5455 C   0  0  0  0  0  0  0  0  0  0  0  0
   -5.6413   -0.8639   -0.7214 C   0  0  0  0  0  0  0  0  0  0  0  0
   -6.1489    0.2056    0.0312 C   0  0  0  0  0  0  0  0  0  0  0  0
   -5.3004    0.8686    0.9359 C   0  0  0  0  0  0  0  0  0  0  0  0
   -3.9811    0.4404    1.1112 C   0  0  0  0  0  0  0  0  0  0  0  0
   -7.5021    0.6417   -0.1864 N   0  0  0  0  0  0  0  0  0  0  0  0
   -8.3437    1.1919    0.8414 C   0  0  0  0  0  0  0  0  0  0  0  0
   -8.0187    1.0894    2.0550 O   0  0  0  0  0  0  0  0  0  0  0  0
   -9.6146    1.8448    0.4958 C   0  0  0  0  0  0  0  0  0  0  0  0
  -10.4379    2.3354    1.5049 O   0  0  0  0  0  0  0  0  0  0  0  0
   -9.9619    1.9674   -0.7093 O   0  0  0  0  0  0  0  0  0  0  0  0
    7.2667    2.1312    0.3702 C   0  0  0  0  0  0  0  0  0  0  0  0
    6.9133    2.0242    1.5760 O   0  0  0  0  0  0  0  0  0  0  0  0
    8.2413    3.1952   -0.0201 C   0  0  0  0  0  0  0  0  0  0  0  0
   10.0232    2.4454   -0.1036 Br  0  0  0  0  0  0  0  0  0  0  0  0
    7.0998    1.3142   -1.6011 H   0  0  0  0  0  0  0  0  0  0  0  0
    4.9137    0.6032    0.1701 H   0  0  0  0  0  0  0  0  0  0  0  0
    6.2994   -0.5076    0.5093 H   0  0  0  0  0  0  0  0  0  0  0  0
    6.3871   -1.1346   -1.9224 H   0  0  0  0  0  0  0  0  0  0  0  0
    5.0021   -0.0353   -2.2588 H   0  0  0  0  0  0  0  0  0  0  0  0
    2.7884   -0.5096   -1.1858 H   0  0  0  0  0  0  0  0  0  0  0  0
    2.3253   -3.4221   -0.9776 H   0  0  0  0  0  0  0  0  0  0  0  0
    3.3461   -3.2201    1.2317 H   0  0  0  0  0  0  0  0  0  0  0  0
    1.5832   -3.4292    1.4257 H   0  0  0  0  0  0  0  0  0  0  0  0
    3.1621   -1.0912    1.7326 H   0  0  0  0  0  0  0  0  0  0  0  0
    0.8971   -0.0833    0.1816 H   0  0  0  0  0  0  0  0  0  0  0  0
   -1.4706   -0.5484   -1.4874 H   0  0  0  0  0  0  0  0  0  0  0  0
   -1.2319    0.7424   -0.2582 H   0  0  0  0  0  0  0  0  0  0  0  0
   -1.9823   -2.1890    0.3828 H   0  0  0  0  0  0  0  0  0  0  0  0
   -1.7150   -0.8910    1.5854 H   0  0  0  0  0  0  0  0  0  0  0  0
   -3.9509   -2.1210   -1.1361 H   0  0  0  0  0  0  0  0  0  0  0  0
   -6.2722   -1.3703   -1.4411 H   0  0  0  0  0  0  0  0  0  0  0  0
   -5.6446    1.7340    1.4862 H   0  0  0  0  0  0  0  0  0  0  0  0
   -3.3404    0.9682    1.8069 H   0  0  0  0  0  0  0  0  0  0  0  0
   -7.9248    0.4645   -1.1257 H   0  0  0  0  0  0  0  0  0  0  0  0
  -11.3162    2.7896    1.2844 H   0  0  0  0  0  0  0  0  0  0  0  0
    7.9717    3.6103   -1.0138 H   0  0  0  0  0  0  0  0  0  0  0  0
    8.2288    4.0206    0.7230 H   0  0  0  0  0  0  0  0  0  0  0  0
  1  2  1  0
  2  3  1  0
  3  4  1  0
  4  5  2  0
  4  6  1  0
  6  7  1  0
  7  8  1  0
  8  9  1  0
  7 10  1  0
 10 11  2  0
 10 12  1  0
 12 13  1  0
 13 14  1  0
 14 15  1  0
 15 16  2  0
 16 17  1  0
 17 18  2  0
 18 19  1  0
 19 20  2  0
 18 21  1  0
 21 22  1  0
 22 23  2  0
 22 24  1  0
 24 25  1  0
 24 26  2  0
  1 27  1  0
 27 28  2  0
 27 29  1  0
 29 30  1  0
 20 15  1  0
  1 31  1  0
  2 32  1  0
  2 33  1  0
  3 34  1  0
  3 35  1  0
  6 36  1  0
  7 37  1  6
  8 38  1  0
  8 39  1  0
  9 40  1  0
 12 41  1  0
 13 42  1  0
 13 43  1  0
 14 44  1  0
 14 45  1  0
 16 46  1  0
 17 47  1  0
 19 48  1  0
 20 49  1  0
 21 50  1  0
 25 51  1  0
 29 52  1  0
 29 53  1  0
M  END
$$$$
