
     RDKit          3D

 48 52  0  0  0  0  0  0  0  0999 V2000
    1.3302    1.0835    0.0732 C   0  0  2  0  0  0  0  0  0  0  0  0
    1.8458    2.4593    0.0372 N   0  0  0  0  0  0  0  0  0  0  0  0
    1.9031    0.2994   -1.0979 C   0  0  0  0  0  0  0  0  0  0  0  0
    1.9871    0.8587   -2.2259 O   0  0  0  0  0  0  0  0  0  0  0  0
    2.3172   -1.0748   -0.9613 N   0  0  0  0  0  0  0  0  0  0  0  0
    2.6154   -1.7016    0.3172 C   0  0  1  0  0  0  0  0  0  0  0  0
    1.7701   -2.9202    0.6565 C   0  0  0  0  0  0  0  0  0  0  0  0
    3.1317   -3.0905    0.0009 C   0  0  1  0  0  0  0  0  0  0  0  0
    3.1465   -3.2438   -1.5193 C   0  0  0  0  0  0  0  0  0  0  0  0
    2.6198   -1.9271   -2.1046 C   0  0  1  0  0  0  0  0  0  0  0  0
    1.4053   -2.1493   -2.9075 C   0  0  0  0  0  0  0  0  0  0  0  0
    0.4495   -2.3220   -3.5366 N   0  0  0  0  0  0  0  0  0  0  0  0
   -0.2415    1.0629    0.0920 C   0  0  2  0  0  0  0  0  0  0  0  0
   -0.8452    1.7733   -1.1570 C   0  0  0  0  0  0  0  0  0  0  0  0
   -2.3885    1.7339   -1.1039 C   0  0  1  0  0  0  0  0  0  0  0  0
   -2.8670    0.2673   -1.0851 C   0  0  0  0  0  0  0  0  0  0  0  0
   -2.3047   -0.4421    0.1640 C   0  0  2  0  0  0  0  0  0  0  0  0
   -2.8035    0.2732    1.4347 C   0  0  0  0  0  0  0  0  0  0  0  0
   -2.3229    1.7456    1.4245 C   0  0  2  0  0  0  0  0  0  0  0  0
   -2.7909    2.4204    2.5665 O   0  0  0  0  0  0  0  0  0  0  0  0
   -2.8835    2.4522    0.1685 C   0  0  0  0  0  0  0  0  0  0  0  0
   -0.7733    1.7850    1.3701 C   0  0  0  0  0  0  0  0  0  0  0  0
   -0.7626   -0.4075    0.1250 C   0  0  0  0  0  0  0  0  0  0  0  0
    1.6846    0.6166    1.0178 H   0  0  0  0  0  0  0  0  0  0  0  0
    2.8790    2.4298   -0.1279 H   0  0  0  0  0  0  0  0  0  0  0  0
    1.7458    2.8817    0.9878 H   0  0  0  0  0  0  0  0  0  0  0  0
    3.2739   -1.1802    1.0442 H   0  0  0  0  0  0  0  0  0  0  0  0
    1.7504   -3.1581    1.7401 H   0  0  0  0  0  0  0  0  0  0  0  0
    0.8934   -3.0879   -0.0055 H   0  0  0  0  0  0  0  0  0  0  0  0
    3.9799   -3.4270    0.6347 H   0  0  0  0  0  0  0  0  0  0  0  0
    2.5378   -4.1284   -1.8120 H   0  0  0  0  0  0  0  0  0  0  0  0
    4.1922   -3.4137   -1.8546 H   0  0  0  0  0  0  0  0  0  0  0  0
    3.3988   -1.4484   -2.7372 H   0  0  0  0  0  0  0  0  0  0  0  0
   -0.5049    2.8310   -1.2049 H   0  0  0  0  0  0  0  0  0  0  0  0
   -0.5131    1.2745   -2.0922 H   0  0  0  0  0  0  0  0  0  0  0  0
   -2.8018    2.2450   -2.0005 H   0  0  0  0  0  0  0  0  0  0  0  0
   -3.9786    0.2303   -1.0749 H   0  0  0  0  0  0  0  0  0  0  0  0
   -2.5267   -0.2563   -2.0056 H   0  0  0  0  0  0  0  0  0  0  0  0
   -2.6505   -1.4987    0.1757 H   0  0  0  0  0  0  0  0  0  0  0  0
   -3.9144    0.2340    1.4795 H   0  0  0  0  0  0  0  0  0  0  0  0
   -2.4161   -0.2528    2.3353 H   0  0  0  0  0  0  0  0  0  0  0  0
   -2.4213    1.9581    3.3640 H   0  0  0  0  0  0  0  0  0  0  0  0
   -2.5582    3.5160    0.1504 H   0  0  0  0  0  0  0  0  0  0  0  0
   -3.9959    2.4484    0.1933 H   0  0  0  0  0  0  0  0  0  0  0  0
   -0.3520    1.3016    2.2797 H   0  0  0  0  0  0  0  0  0  0  0  0
   -0.4562    2.8497    1.3823 H   0  0  0  0  0  0  0  0  0  0  0  0
   -0.4253   -0.9652   -0.7746 H   0  0  0  0  0  0  0  0  0  0  0  0
   -0.3589   -0.9361    1.0164 H   0  0  0  0  0  0  0  0  0  0  0  0
  1  2  1  0
  1  3  1  0
  3  4  2  0
  3  5  1  0
  5  6  1  0
  6  7  1  0
  7  8  1  0
  8  9  1  0
  9 10  1  0
 10 11  1  0
 11 12  3  0
  1 13  1  0
 13 14  1  6
 14 15  1  0
 15 16  1  0
 16 17  1  0
 17 18  1  0
 18 19  1  0
 19 20  1  1
 19 21  1  0
 19 22  1  0
 17 23  1  0
 10  5  1  0
 22 13  1  0
  8  6  1  0
 23 13  1  0
 21 15  1  0
  1 24  1  1
  2 25  1  0
  2 26  1  0
  6 27  1  1
  7 28  1  0
  7 29  1  0
  8 30  1  1
  9 31  1  0
  9 32  1  0
 10 33  1  6
 14 34  1  0
 14 35  1  0
 15 36  1  6
 16 37  1  0
 16 38  1  0
 17 39  1  1
 18 40  1  0
 18 41  1  0
 20 42  1  0
 21 43  1  0
 21 44  1  0
 22 45  1  0
 22 46  1  0
 23 47  1  0
 23 48  1  0
M  END
$$$$
