
     RDKit          3D

 32 33  0  0  0  0  0  0  0  0999 V2000
    0.2591    2.7525    0.1848 C   0  0  0  0  0  0  0  0  0  0  0  0
   -0.5035    1.6939    0.8624 N   0  0  0  0  0  0  0  0  0  0  0  0
   -0.4063    0.3392    0.2506 C   0  0  2  0  0  0  0  0  0  0  0  0
   -1.2381    0.2947   -1.0851 C   0  0  0  0  0  0  0  0  0  0  0  0
   -2.7463    0.0909   -0.8558 C   0  0  0  0  0  0  0  0  0  0  0  0
   -3.0450   -1.2834   -0.2240 C   0  0  0  0  0  0  0  0  0  0  0  0
   -1.8890   -1.8106    0.6414 C   0  0  0  0  0  0  0  0  0  0  0  0
   -1.0968   -0.6628    1.2028 C   0  0  0  0  0  0  0  0  0  0  0  0
   -1.0733   -0.5035    2.4155 O   0  0  0  0  0  0  0  0  0  0  0  0
    1.0876   -0.0833    0.0675 C   0  0  0  0  0  0  0  0  0  0  0  0
    1.7892   -0.5858    1.1953 C   0  0  0  0  0  0  0  0  0  0  0  0
    3.1175   -1.0013    1.1114 C   0  0  0  0  0  0  0  0  0  0  0  0
    3.8077   -0.8958   -0.0876 C   0  0  0  0  0  0  0  0  0  0  0  0
    3.1830   -0.3392   -1.1974 C   0  0  0  0  0  0  0  0  0  0  0  0
    1.8505    0.0934   -1.1356 C   0  0  0  0  0  0  0  0  0  0  0  0
    1.2922    0.9249   -2.5854 Cl  0  0  0  0  0  0  0  0  0  0  0  0
   -0.0949    2.9202   -0.8492 H   0  0  0  0  0  0  0  0  0  0  0  0
    0.1088    3.7081    0.7302 H   0  0  0  0  0  0  0  0  0  0  0  0
    1.3483    2.5370    0.1907 H   0  0  0  0  0  0  0  0  0  0  0  0
   -0.1273    1.6600    1.8393 H   0  0  0  0  0  0  0  0  0  0  0  0
   -1.1419    1.2264   -1.6700 H   0  0  0  0  0  0  0  0  0  0  0  0
   -0.8844   -0.5448   -1.7241 H   0  0  0  0  0  0  0  0  0  0  0  0
   -3.2872    0.1758   -1.8234 H   0  0  0  0  0  0  0  0  0  0  0  0
   -3.1225    0.8979   -0.1890 H   0  0  0  0  0  0  0  0  0  0  0  0
   -3.9636   -1.1985    0.3967 H   0  0  0  0  0  0  0  0  0  0  0  0
   -3.2547   -2.0230   -1.0273 H   0  0  0  0  0  0  0  0  0  0  0  0
   -2.2890   -2.4541    1.4555 H   0  0  0  0  0  0  0  0  0  0  0  0
   -1.2106   -2.4340    0.0193 H   0  0  0  0  0  0  0  0  0  0  0  0
    1.3228   -0.6593    2.1648 H   0  0  0  0  0  0  0  0  0  0  0  0
    3.6159   -1.3993    1.9862 H   0  0  0  0  0  0  0  0  0  0  0  0
    4.8396   -1.2167   -0.1495 H   0  0  0  0  0  0  0  0  0  0  0  0
    3.7525   -0.2191   -2.1109 H   0  0  0  0  0  0  0  0  0  0  0  0
  1  2  1  0
  3  2  1  1
  3  4  1  0
  4  5  1  0
  5  6  1  0
  6  7  1  0
  7  8  1  0
  8  9  2  0
  3 10  1  0
 10 11  2  0
 11 12  1  0
 12 13  2  0
 13 14  1  0
 14 15  2  0
 15 16  1  0
  8  3  1  0
 15 10  1  0
  1 17  1  0
  1 18  1  0
  1 19  1  0
  2 20  1  0
  4 21  1  0
  4 22  1  0
  5 23  1  0
  5 24  1  0
  6 25  1  0
  6 26  1  0
  7 27  1  0
  7 28  1  0
 11 29  1  0
 12 30  1  0
 13 31  1  0
 14 32  1  0
M  END
$$$$
