
     RDKit          3D

 24 26  0  0  0  0  0  0  0  0999 V2000
    1.8947   -0.8388    2.0474 O   0  0  0  0  0  0  0  0  0  0  0  0
    2.2177   -0.1062    1.0747 C   0  0  0  0  0  0  0  0  0  0  0  0
    3.5022    0.3440    0.9583 N   0  0  0  0  0  0  0  0  0  0  0  0
    3.8820    1.1504   -0.0784 C   0  0  0  0  0  0  0  0  0  0  0  0
    2.9790    1.5303   -1.0244 N   0  0  0  0  0  0  0  0  0  0  0  0
    1.7029    1.0910   -0.9250 C   0  0  0  0  0  0  0  0  0  0  0  0
    1.2804    0.2670    0.1024 C   0  0  0  0  0  0  0  0  0  0  0  0
   -0.0843   -0.0670    0.0022 C   0  0  0  0  0  0  0  0  0  0  0  0
   -0.6977    0.5573   -1.0885 C   0  0  0  0  0  0  0  0  0  0  0  0
   -2.1316    0.3587   -1.4741 C   0  0  0  0  0  0  0  0  0  0  0  0
   -2.9472   -0.1630   -0.2817 C   0  0  0  0  0  0  0  0  0  0  0  0
   -2.2292   -1.3343    0.4079 C   0  0  0  0  0  0  0  0  0  0  0  0
   -0.8669   -0.9047    0.9826 C   0  0  0  0  0  0  0  0  0  0  0  0
    0.4362    1.4554   -1.9639 S   0  0  0  0  0  0  0  0  0  0  0  0
    4.2132    0.0720    1.6743 H   0  0  0  0  0  0  0  0  0  0  0  0
    4.9054    1.4951   -0.1483 H   0  0  0  0  0  0  0  0  0  0  0  0
   -2.5615    1.3204   -1.8263 H   0  0  0  0  0  0  0  0  0  0  0  0
   -2.1784   -0.3755   -2.3067 H   0  0  0  0  0  0  0  0  0  0  0  0
   -3.9443   -0.4988   -0.6392 H   0  0  0  0  0  0  0  0  0  0  0  0
   -3.1044    0.6586    0.4516 H   0  0  0  0  0  0  0  0  0  0  0  0
   -2.8661   -1.7249    1.2305 H   0  0  0  0  0  0  0  0  0  0  0  0
   -2.0793   -2.1567   -0.3261 H   0  0  0  0  0  0  0  0  0  0  0  0
   -1.0282   -0.3108    1.9078 H   0  0  0  0  0  0  0  0  0  0  0  0
   -0.2944   -1.8196    1.2429 H   0  0  0  0  0  0  0  0  0  0  0  0
  1  2  2  0
  2  3  1  0
  3  4  1  0
  4  5  2  0
  5  6  1  0
  6  7  2  0
  7  8  1  0
  8  9  2  0
  9 10  1  0
 10 11  1  0
 11 12  1  0
 12 13  1  0
  9 14  1  0
  7  2  1  0
 13  8  1  0
 14  6  1  0
  3 15  1  0
  4 16  1  0
 10 17  1  0
 10 18  1  0
 11 19  1  0
 11 20  1  0
 12 21  1  0
 12 22  1  0
 13 23  1  0
 13 24  1  0
M  END
$$$$
