
     RDKit          3D

 54 56  0  0  0  0  0  0  0  0999 V2000
   -2.3862   -1.1064   -2.3940 C   0  0  0  0  0  0  0  0  0  0  0  0
   -2.7502   -0.6997   -1.0362 N   0  0  0  0  0  0  0  0  0  0  0  0
   -2.7761   -1.6427    0.0335 C   0  0  0  0  0  0  0  0  0  0  0  0
   -3.3676   -2.9013   -0.1821 C   0  0  0  0  0  0  0  0  0  0  0  0
   -3.5068   -3.8110    0.8623 C   0  0  0  0  0  0  0  0  0  0  0  0
   -3.0619   -3.4760    2.1358 C   0  0  0  0  0  0  0  0  0  0  0  0
   -2.4689   -2.2344    2.3655 C   0  0  0  0  0  0  0  0  0  0  0  0
   -2.3198   -1.2840    1.3262 C   0  0  0  0  0  0  0  0  0  0  0  0
   -1.5132   -0.0103    1.6283 C   0  0  0  0  0  0  0  0  0  0  0  0
   -0.1023   -0.1232    1.1985 N   0  0  0  0  0  0  0  0  0  0  0  0
    0.1111    0.0158   -0.2489 C   0  0  0  0  0  0  0  0  0  0  0  0
    1.5931    0.2497   -0.5757 C   0  0  0  0  0  0  0  0  0  0  0  0
    2.4709   -0.9346   -0.1370 C   0  0  0  0  0  0  0  0  0  0  0  0
    3.9287   -0.7918   -0.6010 C   0  0  0  0  0  0  0  0  0  0  0  0
    4.6827    0.3179    0.1526 C   0  0  0  0  0  0  0  0  0  0  0  0
    6.1805    0.3286   -0.1800 C   0  0  0  0  0  0  0  0  0  0  0  0
    6.4303    0.7312   -1.6010 C   0  0  0  0  0  0  0  0  0  0  0  0
    6.6697   -0.2420   -2.5660 O   0  0  0  0  0  0  0  0  0  0  0  0
    6.3933    1.9475   -1.9283 O   0  0  0  0  0  0  0  0  0  0  0  0
   -2.1053    1.3946    1.3915 C   0  0  0  0  0  0  0  0  0  0  0  0
   -3.0268    1.7858    0.3737 C   0  0  0  0  0  0  0  0  0  0  0  0
   -3.4562    3.1236    0.3008 C   0  0  0  0  0  0  0  0  0  0  0  0
   -2.9742    4.0860    1.1837 C   0  0  0  0  0  0  0  0  0  0  0  0
   -3.5228    5.7480    1.0614 Cl  0  0  0  0  0  0  0  0  0  0  0  0
   -2.0542    3.7269    2.1595 C   0  0  0  0  0  0  0  0  0  0  0  0
   -1.6249    2.4057    2.2600 C   0  0  0  0  0  0  0  0  0  0  0  0
   -3.7229    0.7028   -0.8219 S   0  0  0  0  0  6  0  0  0  0  0  0
   -5.0994    0.2910   -0.3808 O   0  0  0  0  0  0  0  0  0  0  0  0
   -3.8296    1.4274   -2.1360 O   0  0  0  0  0  0  0  0  0  0  0  0
   -1.6867   -1.9691   -2.3708 H   0  0  0  0  0  0  0  0  0  0  0  0
   -1.8817   -0.2660   -2.9150 H   0  0  0  0  0  0  0  0  0  0  0  0
   -3.2984   -1.3935   -2.9580 H   0  0  0  0  0  0  0  0  0  0  0  0
   -3.7471   -3.1688   -1.1599 H   0  0  0  0  0  0  0  0  0  0  0  0
   -3.9678   -4.7741    0.6851 H   0  0  0  0  0  0  0  0  0  0  0  0
   -3.1658   -4.1846    2.9475 H   0  0  0  0  0  0  0  0  0  0  0  0
   -2.1082   -2.0280    3.3656 H   0  0  0  0  0  0  0  0  0  0  0  0
   -1.4467   -0.0307    2.7400 H   0  0  0  0  0  0  0  0  0  0  0  0
    0.4505    0.6157    1.6944 H   0  0  0  0  0  0  0  0  0  0  0  0
   -0.1978   -0.9204   -0.7516 H   0  0  0  0  0  0  0  0  0  0  0  0
   -0.4714    0.8681   -0.6598 H   0  0  0  0  0  0  0  0  0  0  0  0
    1.9300    1.1849   -0.0803 H   0  0  0  0  0  0  0  0  0  0  0  0
    1.6898    0.3917   -1.6743 H   0  0  0  0  0  0  0  0  0  0  0  0
    2.0608   -1.8688   -0.5796 H   0  0  0  0  0  0  0  0  0  0  0  0
    2.4400   -1.0453    0.9688 H   0  0  0  0  0  0  0  0  0  0  0  0
    4.4420   -1.7616   -0.4204 H   0  0  0  0  0  0  0  0  0  0  0  0
    3.9534   -0.5966   -1.6951 H   0  0  0  0  0  0  0  0  0  0  0  0
    4.2493    1.3119   -0.0895 H   0  0  0  0  0  0  0  0  0  0  0  0
    4.5724    0.1549    1.2469 H   0  0  0  0  0  0  0  0  0  0  0  0
    6.6940    1.0496    0.4922 H   0  0  0  0  0  0  0  0  0  0  0  0
    6.6208   -0.6743    0.0095 H   0  0  0  0  0  0  0  0  0  0  0  0
    6.8259    0.0135   -3.5337 H   0  0  0  0  0  0  0  0  0  0  0  0
   -4.1740    3.4250   -0.4525 H   0  0  0  0  0  0  0  0  0  0  0  0
   -1.6692    4.4710    2.8453 H   0  0  0  0  0  0  0  0  0  0  0  0
   -0.9050    2.1703    3.0348 H   0  0  0  0  0  0  0  0  0  0  0  0
  1  2  1  0
  2  3  1  0
  3  4  2  0
  4  5  1  0
  5  6  2  0
  6  7  1  0
  7  8  2  0
  8  9  1  0
  9 10  1  0
 10 11  1  0
 11 12  1  0
 12 13  1  0
 13 14  1  0
 14 15  1  0
 15 16  1  0
 16 17  1  0
 17 18  1  0
 17 19  2  0
  9 20  1  0
 20 21  2  0
 21 22  1  0
 22 23  2  0
 23 24  1  0
 23 25  1  0
 25 26  2  0
 21 27  1  0
 27 28  2  0
 27 29  2  0
 27  2  1  0
  8  3  1  0
 26 20  1  0
  1 30  1  0
  1 31  1  0
  1 32  1  0
  4 33  1  0
  5 34  1  0
  6 35  1  0
  7 36  1  0
  9 37  1  0
 10 38  1  0
 11 39  1  0
 11 40  1  0
 12 41  1  0
 12 42  1  0
 13 43  1  0
 13 44  1  0
 14 45  1  0
 14 46  1  0
 15 47  1  0
 15 48  1  0
 16 49  1  0
 16 50  1  0
 18 51  1  0
 22 52  1  0
 25 53  1  0
 26 54  1  0
M  END
$$$$
