
     RDKit          3D

 66 69  0  0  0  0  0  0  0  0999 V2000
    8.4281   -0.2730   -2.8892 O   0  0  0  0  0  0  0  0  0  0  0  0
    7.8490   -1.5499   -2.9171 C   0  0  0  0  0  0  0  0  0  0  0  0
    8.2438   -2.3633   -1.6765 C   0  0  0  0  0  0  0  0  0  0  0  0
    7.8488   -1.6873   -0.3568 C   0  0  0  0  0  0  0  0  0  0  0  0
    6.3863   -1.6285   -0.2228 N   0  0  0  0  0  0  0  0  0  0  0  0
    5.9497   -1.4389    1.1704 C   0  0  0  0  0  0  0  0  0  0  0  0
    6.4014   -0.1049    1.7980 C   0  0  0  0  0  0  0  0  0  0  0  0
    5.7339    1.3377    0.9708 S   0  0  0  0  0  6  0  0  0  0  0  0
    5.8625    2.5278    1.8794 O   0  0  0  0  0  0  0  0  0  0  0  0
    6.5232    1.6097   -0.2796 O   0  0  0  0  0  0  0  0  0  0  0  0
    4.0320    1.1034    0.5793 C   0  0  0  0  0  0  0  0  0  0  0  0
    3.6153    0.9632   -0.7514 C   0  0  0  0  0  0  0  0  0  0  0  0
    2.2647    0.7572   -1.0468 C   0  0  0  0  0  0  0  0  0  0  0  0
    1.3116    0.7038   -0.0192 C   0  0  0  0  0  0  0  0  0  0  0  0
   -0.0675    0.4666   -0.3479 N   0  0  0  0  0  0  0  0  0  0  0  0
   -1.1754    1.0379    0.3621 C   0  0  0  0  0  0  0  0  0  0  0  0
   -2.4440    0.5716    0.1170 N   0  0  0  0  0  0  0  0  0  0  0  0
   -3.5377    1.1015    0.7464 C   0  0  0  0  0  0  0  0  0  0  0  0
   -4.8277    0.6248    0.5016 O   0  0  0  0  0  0  0  0  0  0  0  0
   -5.0952   -0.4334   -0.4140 C   0  0  0  0  0  0  0  0  0  0  0  0
   -6.6040   -0.7154   -0.4656 C   0  0  0  0  0  0  0  0  0  0  0  0
   -6.8952   -1.9874   -1.3034 C   0  0  0  0  0  0  0  0  0  0  0  0
   -8.3165   -2.0193   -1.9032 C   0  0  0  0  0  0  0  0  0  0  0  0
   -9.3111   -1.2183   -1.0583 C   0  0  0  0  0  0  0  0  0  0  0  0
   -8.9069    0.2662   -0.9620 C   0  0  0  0  0  0  0  0  0  0  0  0
   -7.3819    0.4948   -1.0184 C   0  0  0  0  0  0  0  0  0  0  0  0
   -3.3221    2.1382    1.6407 C   0  0  0  0  0  0  0  0  0  0  0  0
   -4.2100    2.8288    2.3772 N   0  0  0  0  0  0  0  0  0  0  0  0
   -3.4151    3.7123    3.0434 C   0  0  0  0  0  0  0  0  0  0  0  0
   -2.0964    3.5912    2.7462 N   0  0  0  0  0  0  0  0  0  0  0  0
   -2.0699    2.5917    1.8609 C   0  0  0  0  0  0  0  0  0  0  0  0
   -0.9847    2.0727    1.2402 N   0  0  0  0  0  0  0  0  0  0  0  0
    1.7375    0.8190    1.3161 C   0  0  0  0  0  0  0  0  0  0  0  0
    3.0884    1.0240    1.6107 C   0  0  0  0  0  0  0  0  0  0  0  0
    9.3920   -0.3941   -3.0937 H   0  0  0  0  0  0  0  0  0  0  0  0
    8.1706   -2.0948   -3.8335 H   0  0  0  0  0  0  0  0  0  0  0  0
    6.7455   -1.4458   -2.9711 H   0  0  0  0  0  0  0  0  0  0  0  0
    7.7664   -3.3658   -1.7319 H   0  0  0  0  0  0  0  0  0  0  0  0
    9.3450   -2.5162   -1.6845 H   0  0  0  0  0  0  0  0  0  0  0  0
    8.2888   -2.2870    0.4710 H   0  0  0  0  0  0  0  0  0  0  0  0
    8.2870   -0.6662   -0.3117 H   0  0  0  0  0  0  0  0  0  0  0  0
    6.0103   -0.8544   -0.8145 H   0  0  0  0  0  0  0  0  0  0  0  0
    6.3277   -2.2775    1.7949 H   0  0  0  0  0  0  0  0  0  0  0  0
    4.8414   -1.5026    1.2081 H   0  0  0  0  0  0  0  0  0  0  0  0
    7.5083   -0.0358    1.8251 H   0  0  0  0  0  0  0  0  0  0  0  0
    6.0495   -0.0839    2.8511 H   0  0  0  0  0  0  0  0  0  0  0  0
    4.3320    1.0067   -1.5611 H   0  0  0  0  0  0  0  0  0  0  0  0
    1.9576    0.6478   -2.0794 H   0  0  0  0  0  0  0  0  0  0  0  0
   -0.2809   -0.0920   -1.2053 H   0  0  0  0  0  0  0  0  0  0  0  0
   -4.5595   -1.3481   -0.0766 H   0  0  0  0  0  0  0  0  0  0  0  0
   -4.7246   -0.1554   -1.4256 H   0  0  0  0  0  0  0  0  0  0  0  0
   -6.9486   -0.8987    0.5776 H   0  0  0  0  0  0  0  0  0  0  0  0
   -6.7537   -2.8783   -0.6528 H   0  0  0  0  0  0  0  0  0  0  0  0
   -6.1682   -2.0761   -2.1410 H   0  0  0  0  0  0  0  0  0  0  0  0
   -8.2950   -1.5931   -2.9306 H   0  0  0  0  0  0  0  0  0  0  0  0
   -8.6617   -3.0727   -1.9853 H   0  0  0  0  0  0  0  0  0  0  0  0
  -10.3268   -1.2982   -1.5025 H   0  0  0  0  0  0  0  0  0  0  0  0
   -9.3554   -1.6594   -0.0380 H   0  0  0  0  0  0  0  0  0  0  0  0
   -9.3820    0.8319   -1.7930 H   0  0  0  0  0  0  0  0  0  0  0  0
   -9.3070    0.6802   -0.0108 H   0  0  0  0  0  0  0  0  0  0  0  0
   -7.1356    1.4115   -0.4396 H   0  0  0  0  0  0  0  0  0  0  0  0
   -7.0768    0.6731   -2.0737 H   0  0  0  0  0  0  0  0  0  0  0  0
   -3.8003    4.4425    3.7427 H   0  0  0  0  0  0  0  0  0  0  0  0
   -1.2959    4.1473    3.1203 H   0  0  0  0  0  0  0  0  0  0  0  0
    1.0336    0.7236    2.1321 H   0  0  0  0  0  0  0  0  0  0  0  0
    3.4016    1.1070    2.6438 H   0  0  0  0  0  0  0  0  0  0  0  0
  1  2  1  0
  2  3  1  0
  3  4  1  0
  4  5  1  0
  5  6  1  0
  6  7  1  0
  7  8  1  0
  8  9  2  0
  8 10  2  0
  8 11  1  0
 11 12  2  0
 12 13  1  0
 13 14  2  0
 14 15  1  0
 15 16  1  0
 16 17  2  0
 17 18  1  0
 18 19  1  0
 19 20  1  0
 20 21  1  0
 21 22  1  0
 22 23  1  0
 23 24  1  0
 24 25  1  0
 25 26  1  0
 18 27  2  0
 27 28  1  0
 28 29  2  0
 29 30  1  0
 30 31  1  0
 31 32  2  0
 14 33  1  0
 33 34  2  0
 34 11  1  0
 32 16  1  0
 26 21  1  0
 31 27  1  0
  1 35  1  0
  2 36  1  0
  2 37  1  0
  3 38  1  0
  3 39  1  0
  4 40  1  0
  4 41  1  0
  5 42  1  0
  6 43  1  0
  6 44  1  0
  7 45  1  0
  7 46  1  0
 12 47  1  0
 13 48  1  0
 15 49  1  0
 20 50  1  0
 20 51  1  0
 21 52  1  0
 22 53  1  0
 22 54  1  0
 23 55  1  0
 23 56  1  0
 24 57  1  0
 24 58  1  0
 25 59  1  0
 25 60  1  0
 26 61  1  0
 26 62  1  0
 29 63  1  0
 30 64  1  0
 33 65  1  0
 34 66  1  0
M  END
$$$$
