
     RDKit          3D

 61 64  0  0  0  0  0  0  0  0999 V2000
   -2.4441   -2.1291   -1.8759 C   0  0  0  0  0  0  0  0  0  0  0  0
   -2.0263   -1.3075   -0.6575 C   0  0  1  0  0  0  0  0  0  0  0  0
   -0.9168   -0.5005   -1.0124 O   0  0  0  0  0  0  0  0  0  0  0  0
   -0.2802    0.0540    0.1302 C   0  0  0  0  0  0  0  0  0  0  0  0
    1.2439   -0.2237    0.1209 C   0  0  1  0  0  0  0  0  0  0  0  0
    1.8956    0.3786   -1.1796 C   0  0  0  0  0  0  0  0  0  0  0  0
    2.4926    1.7699   -0.9345 C   0  0  0  0  0  0  0  0  0  0  0  0
    3.5888    1.7248    0.1683 C   0  0  1  0  0  0  0  0  0  0  0  0
    5.0020    1.4833   -0.4475 C   0  0  0  0  0  0  0  0  0  0  0  0
    5.6956    2.8515   -0.5155 C   0  0  0  0  0  0  0  0  0  0  0  0
    4.8607    3.6857    0.3697 C   0  0  0  0  0  0  0  0  0  0  0  0
    5.1462    4.8661    0.7012 O   0  0  0  0  0  0  0  0  0  0  0  0
    3.6784    3.0397    0.7869 N   0  0  0  0  0  0  0  0  0  0  0  0
    3.2516    0.6574    1.2429 C   0  0  0  0  0  0  0  0  0  0  0  0
    1.7986    0.4737    1.3113 N   0  0  0  0  0  0  0  0  0  0  0  0
    1.4692   -1.7569    0.1614 C   0  0  0  0  0  0  0  0  0  0  0  0
    1.2439   -2.5232   -1.0072 C   0  0  0  0  0  0  0  0  0  0  0  0
    1.3891   -3.9122   -1.0022 C   0  0  0  0  0  0  0  0  0  0  0  0
    1.7587   -4.5727    0.1668 C   0  0  0  0  0  0  0  0  0  0  0  0
    1.9822   -3.8449    1.3338 C   0  0  0  0  0  0  0  0  0  0  0  0
    1.8360   -2.4543    1.3388 C   0  0  0  0  0  0  0  0  0  0  0  0
   -3.1922   -0.4579   -0.1904 C   0  0  0  0  0  0  0  0  0  0  0  0
   -3.5510    0.7069   -0.8878 C   0  0  0  0  0  0  0  0  0  0  0  0
   -4.6394    1.4879   -0.4675 C   0  0  0  0  0  0  0  0  0  0  0  0
   -5.3994    1.0652    0.6360 C   0  0  0  0  0  0  0  0  0  0  0  0
   -5.0436   -0.0883    1.3551 C   0  0  0  0  0  0  0  0  0  0  0  0
   -3.9511   -0.8562    0.9203 C   0  0  0  0  0  0  0  0  0  0  0  0
   -5.8891   -0.5552    2.5139 C   0  0  0  0  0  0  0  0  0  0  0  0
   -5.1216   -1.2546    3.4293 F   0  0  0  0  0  0  0  0  0  0  0  0
   -6.8914   -1.3817    2.0417 F   0  0  0  0  0  0  0  0  0  0  0  0
   -6.4630    0.5224    3.1664 F   0  0  0  0  0  0  0  0  0  0  0  0
   -5.0517    2.7057   -1.2564 C   0  0  0  0  0  0  0  0  0  0  0  0
   -5.6665    3.6356   -0.4358 F   0  0  0  0  0  0  0  0  0  0  0  0
   -3.9494    3.3070   -1.8393 F   0  0  0  0  0  0  0  0  0  0  0  0
   -5.9356    2.3268   -2.2492 F   0  0  0  0  0  0  0  0  0  0  0  0
   -2.7170   -1.4634   -2.7226 H   0  0  0  0  0  0  0  0  0  0  0  0
   -3.3137   -2.7740   -1.6255 H   0  0  0  0  0  0  0  0  0  0  0  0
   -1.6044   -2.7819   -2.1956 H   0  0  0  0  0  0  0  0  0  0  0  0
   -1.7331   -2.0438    0.1286 H   0  0  0  0  0  0  0  0  0  0  0  0
   -0.6994   -0.3024    1.1026 H   0  0  0  0  0  0  0  0  0  0  0  0
   -0.4463    1.1531    0.1110 H   0  0  0  0  0  0  0  0  0  0  0  0
    2.7254   -0.2725   -1.5348 H   0  0  0  0  0  0  0  0  0  0  0  0
    1.1666    0.4434   -2.0157 H   0  0  0  0  0  0  0  0  0  0  0  0
    1.6673    2.4486   -0.6237 H   0  0  0  0  0  0  0  0  0  0  0  0
    2.9008    2.1794   -1.8846 H   0  0  0  0  0  0  0  0  0  0  0  0
    4.9556    1.0103   -1.4527 H   0  0  0  0  0  0  0  0  0  0  0  0
    5.6115    0.8218    0.2077 H   0  0  0  0  0  0  0  0  0  0  0  0
    5.6657    3.2565   -1.5496 H   0  0  0  0  0  0  0  0  0  0  0  0
    6.7417    2.7990   -0.1443 H   0  0  0  0  0  0  0  0  0  0  0  0
    2.9207    3.4949    1.3442 H   0  0  0  0  0  0  0  0  0  0  0  0
    3.7390   -0.3148    1.0066 H   0  0  0  0  0  0  0  0  0  0  0  0
    3.6355    0.9788    2.2363 H   0  0  0  0  0  0  0  0  0  0  0  0
    1.4894    0.0744    2.2249 H   0  0  0  0  0  0  0  0  0  0  0  0
    0.9494   -2.0480   -1.9334 H   0  0  0  0  0  0  0  0  0  0  0  0
    1.2111   -4.4771   -1.9082 H   0  0  0  0  0  0  0  0  0  0  0  0
    1.8709   -5.6492    0.1691 H   0  0  0  0  0  0  0  0  0  0  0  0
    2.2686   -4.3604    2.2416 H   0  0  0  0  0  0  0  0  0  0  0  0
    2.0265   -1.9544    2.2735 H   0  0  0  0  0  0  0  0  0  0  0  0
   -2.9842    0.9981   -1.7639 H   0  0  0  0  0  0  0  0  0  0  0  0
   -6.2741    1.6314    0.9317 H   0  0  0  0  0  0  0  0  0  0  0  0
   -3.6944   -1.7712    1.4404 H   0  0  0  0  0  0  0  0  0  0  0  0
  1  2  1  0
  2  3  1  0
  3  4  1  0
  5  4  1  6
  5  6  1  0
  6  7  1  0
  7  8  1  0
  8  9  1  0
  9 10  1  0
 10 11  1  0
 11 12  2  0
 11 13  1  0
  8 14  1  0
 14 15  1  0
  5 16  1  0
 16 17  2  0
 17 18  1  0
 18 19  2  0
 19 20  1  0
 20 21  2  0
  2 22  1  0
 22 23  2  0
 23 24  1  0
 24 25  2  0
 25 26  1  0
 26 27  2  0
 26 28  1  0
 28 29  1  0
 28 30  1  0
 28 31  1  0
 24 32  1  0
 32 33  1  0
 32 34  1  0
 32 35  1  0
 15  5  1  0
 21 16  1  0
 27 22  1  0
  8 13  1  1
  1 36  1  0
  1 37  1  0
  1 38  1  0
  2 39  1  1
  4 40  1  0
  4 41  1  0
  6 42  1  0
  6 43  1  0
  7 44  1  0
  7 45  1  0
  9 46  1  0
  9 47  1  0
 10 48  1  0
 10 49  1  0
 13 50  1  0
 14 51  1  0
 14 52  1  0
 15 53  1  0
 17 54  1  0
 18 55  1  0
 19 56  1  0
 20 57  1  0
 21 58  1  0
 23 59  1  0
 25 60  1  0
 27 61  1  0
M  END
$$$$
