
     RDKit          3D

 52 55  0  0  0  0  0  0  0  0999 V2000
    0.0400   -1.7367    1.9170 C   0  0  0  0  0  0  0  0  0  0  0  0
   -0.2895   -1.3302    0.5949 O   0  0  0  0  0  0  0  0  0  0  0  0
   -0.4782    0.0164    0.2827 C   0  0  0  0  0  0  0  0  0  0  0  0
   -1.7796    0.6010    0.2879 C   0  0  0  0  0  0  0  0  0  0  0  0
   -2.9388   -0.1498    0.3716 N   0  0  0  0  0  0  0  0  0  0  0  0
   -4.1426    0.4594    0.5993 C   0  0  0  0  0  0  0  0  0  0  0  0
   -4.2776    1.8540    0.5993 C   0  0  0  0  0  0  0  0  0  0  0  0
   -5.6190    2.4631    0.8161 C   0  0  0  0  0  0  0  0  0  0  0  0
   -5.7785    3.8459    0.8591 O   0  0  0  0  0  0  0  0  0  0  0  0
   -6.6332    1.7290    0.9681 O   0  0  0  0  0  0  0  0  0  0  0  0
   -3.1328    2.6356    0.3734 C   0  0  0  0  0  0  0  0  0  0  0  0
   -3.2252    3.8935    0.3178 O   0  0  0  0  0  0  0  0  0  0  0  0
   -1.8780    2.0175    0.2225 C   0  0  0  0  0  0  0  0  0  0  0  0
   -0.7227    2.7931    0.0201 C   0  0  0  0  0  0  0  0  0  0  0  0
    0.5234    2.1914   -0.1032 C   0  0  0  0  0  0  0  0  0  0  0  0
    0.6605    0.8066    0.0272 C   0  0  0  0  0  0  0  0  0  0  0  0
    1.9597    0.1973   -0.1208 N   0  0  0  0  0  0  0  0  0  0  0  0
    3.1264    0.7923    0.5495 C   0  0  0  0  0  0  0  0  0  0  0  0
    4.2754   -0.2257    0.7025 C   0  0  1  0  0  0  0  0  0  0  0  0
    3.9580   -1.2538    1.8000 C   0  0  0  0  0  0  0  0  0  0  0  0
    4.6357   -0.9256   -0.6388 C   0  0  0  0  0  0  0  0  0  0  0  0
    3.5467   -0.8195   -1.7326 C   0  0  2  0  0  0  0  0  0  0  0  0
    3.7099    0.4200   -2.4986 N   0  0  0  0  0  0  0  0  0  0  0  0
    2.1417   -0.8751   -1.1116 C   0  0  0  0  0  0  0  0  0  0  0  0
   -2.9518   -1.6202    0.2470 C   0  0  0  0  0  0  0  0  0  0  0  0
   -2.4671   -2.1465   -1.1019 C   0  0  0  0  0  0  0  0  0  0  0  0
   -3.9459   -2.1634   -0.7804 C   0  0  0  0  0  0  0  0  0  0  0  0
    0.9492   -1.2063    2.2675 H   0  0  0  0  0  0  0  0  0  0  0  0
    0.2278   -2.8296    1.9270 H   0  0  0  0  0  0  0  0  0  0  0  0
   -0.8019   -1.5062    2.6031 H   0  0  0  0  0  0  0  0  0  0  0  0
   -5.0257   -0.1515    0.7519 H   0  0  0  0  0  0  0  0  0  0  0  0
   -6.6906    4.2608    1.0078 H   0  0  0  0  0  0  0  0  0  0  0  0
   -0.7795    3.8721   -0.0569 H   0  0  0  0  0  0  0  0  0  0  0  0
    1.3874    2.8129   -0.2989 H   0  0  0  0  0  0  0  0  0  0  0  0
    2.8321    1.1795    1.5501 H   0  0  0  0  0  0  0  0  0  0  0  0
    3.4885    1.6572   -0.0469 H   0  0  0  0  0  0  0  0  0  0  0  0
    5.1707    0.3383    1.0477 H   0  0  0  0  0  0  0  0  0  0  0  0
    3.6880   -0.7414    2.7479 H   0  0  0  0  0  0  0  0  0  0  0  0
    3.1217   -1.9154    1.4959 H   0  0  0  0  0  0  0  0  0  0  0  0
    4.8509   -1.8849    1.9963 H   0  0  0  0  0  0  0  0  0  0  0  0
    5.5875   -0.4992   -1.0252 H   0  0  0  0  0  0  0  0  0  0  0  0
    4.8489   -2.0036   -0.4633 H   0  0  0  0  0  0  0  0  0  0  0  0
    3.6571   -1.6838   -2.4271 H   0  0  0  0  0  0  0  0  0  0  0  0
    2.9824    0.4445   -3.2500 H   0  0  0  0  0  0  0  0  0  0  0  0
    4.6291    0.3821   -2.9966 H   0  0  0  0  0  0  0  0  0  0  0  0
    1.3846   -0.7819   -1.9217 H   0  0  0  0  0  0  0  0  0  0  0  0
    1.9884   -1.8614   -0.6249 H   0  0  0  0  0  0  0  0  0  0  0  0
   -2.8004   -2.2413    1.1549 H   0  0  0  0  0  0  0  0  0  0  0  0
   -2.1739   -1.3717   -1.8425 H   0  0  0  0  0  0  0  0  0  0  0  0
   -1.9781   -3.1421   -1.0521 H   0  0  0  0  0  0  0  0  0  0  0  0
   -4.5226   -1.4190   -1.3700 H   0  0  0  0  0  0  0  0  0  0  0  0
   -4.3385   -3.1777   -0.5571 H   0  0  0  0  0  0  0  0  0  0  0  0
  1  2  1  0
  2  3  1  0
  3  4  2  0
  4  5  1  0
  5  6  1  0
  6  7  2  0
  7  8  1  0
  8  9  1  0
  8 10  2  0
  7 11  1  0
 11 12  2  0
 11 13  1  0
 13 14  2  0
 14 15  1  0
 15 16  2  0
 16 17  1  0
 17 18  1  0
 18 19  1  0
 19 20  1  0
 19 21  1  0
 21 22  1  0
 22 23  1  0
 22 24  1  0
  5 25  1  0
 25 26  1  0
 26 27  1  0
 16  3  1  0
 24 17  1  0
 27 25  1  0
 13  4  1  0
  1 28  1  0
  1 29  1  0
  1 30  1  0
  6 31  1  0
  9 32  1  0
 14 33  1  0
 15 34  1  0
 18 35  1  0
 18 36  1  0
 19 37  1  1
 20 38  1  0
 20 39  1  0
 20 40  1  0
 21 41  1  0
 21 42  1  0
 22 43  1  6
 23 44  1  0
 23 45  1  0
 24 46  1  0
 24 47  1  0
 25 48  1  0
 26 49  1  0
 26 50  1  0
 27 51  1  0
 27 52  1  0
M  END
$$$$
