
     RDKit          3D

 33 35  0  0  0  0  0  0  0  0999 V2000
    2.8064    3.3610   -0.1228 O   0  0  0  0  0  0  0  0  0  0  0  0
    3.1481    2.1590    0.4913 C   0  0  0  0  0  0  0  0  0  0  0  0
    4.1407    2.1103    1.2662 O   0  0  0  0  0  0  0  0  0  0  0  0
    2.3618    0.9137    0.1987 C   0  0  0  0  0  0  0  0  0  0  0  0
    0.9402    1.2325    0.2141 N   0  0  0  0  0  0  0  0  0  0  0  0
   -0.0283    0.3637    0.1494 C   0  0  0  0  0  0  0  0  0  0  0  0
   -1.4260    0.8705    0.1599 C   0  0  0  0  0  0  0  0  0  0  0  0
   -1.7425    2.0736    0.8197 C   0  0  0  0  0  0  0  0  0  0  0  0
   -3.0546    2.5568    0.8217 C   0  0  0  0  0  0  0  0  0  0  0  0
   -4.0624    1.8514    0.1607 C   0  0  0  0  0  0  0  0  0  0  0  0
   -3.7597    0.6630   -0.5072 C   0  0  0  0  0  0  0  0  0  0  0  0
   -2.4496    0.1750   -0.5126 C   0  0  0  0  0  0  0  0  0  0  0  0
    0.2413   -1.1051    0.1014 C   0  0  0  0  0  0  0  0  0  0  0  0
    1.2216   -1.6765   -0.7536 C   0  0  0  0  0  0  0  0  0  0  0  0
    2.0768   -0.8771   -1.5885 N   0  0  0  0  0  0  0  0  0  0  0  0
    2.7097    0.3280   -1.1429 C   0  0  0  0  0  0  0  0  0  0  0  0
    3.5529    0.8921   -1.8931 O   0  0  0  0  0  0  0  0  0  0  0  0
    1.3497   -3.0732   -0.8171 C   0  0  0  0  0  0  0  0  0  0  0  0
    0.5590   -3.9000   -0.0192 C   0  0  0  0  0  0  0  0  0  0  0  0
   -0.3778   -3.3429    0.8500 C   0  0  0  0  0  0  0  0  0  0  0  0
   -1.3657   -4.3835    1.8592 Cl  0  0  0  0  0  0  0  0  0  0  0  0
   -0.5365   -1.9568    0.9096 C   0  0  0  0  0  0  0  0  0  0  0  0
    3.3376    4.2049    0.0556 H   0  0  0  0  0  0  0  0  0  0  0  0
    2.5808    0.1636    0.9914 H   0  0  0  0  0  0  0  0  0  0  0  0
   -0.9780    2.6339    1.3436 H   0  0  0  0  0  0  0  0  0  0  0  0
   -3.2899    3.4791    1.3369 H   0  0  0  0  0  0  0  0  0  0  0  0
   -5.0772    2.2277    0.1630 H   0  0  0  0  0  0  0  0  0  0  0  0
   -4.5401    0.1213   -1.0259 H   0  0  0  0  0  0  0  0  0  0  0  0
   -2.2352   -0.7382   -1.0534 H   0  0  0  0  0  0  0  0  0  0  0  0
    2.4112   -1.2892   -2.4894 H   0  0  0  0  0  0  0  0  0  0  0  0
    2.0805   -3.5219   -1.4785 H   0  0  0  0  0  0  0  0  0  0  0  0
    0.6799   -4.9744   -0.0742 H   0  0  0  0  0  0  0  0  0  0  0  0
   -1.2745   -1.5421    1.5859 H   0  0  0  0  0  0  0  0  0  0  0  0
  1  2  1  0
  2  3  2  0
  2  4  1  0
  4  5  1  0
  5  6  2  0
  6  7  1  0
  7  8  2  0
  8  9  1  0
  9 10  2  0
 10 11  1  0
 11 12  2  0
  6 13  1  0
 13 14  2  0
 14 15  1  0
 15 16  1  0
 16 17  2  0
 14 18  1  0
 18 19  2  0
 19 20  1  0
 20 21  1  0
 20 22  2  0
 16  4  1  0
 12  7  1  0
 22 13  1  0
  1 23  1  0
  4 24  1  0
  8 25  1  0
  9 26  1  0
 10 27  1  0
 11 28  1  0
 12 29  1  0
 15 30  1  0
 18 31  1  0
 19 32  1  0
 22 33  1  0
M  END
$$$$
