
     RDKit          3D

 50 51  0  0  0  0  0  0  0  0999 V2000
   -6.5351    2.2751    3.2945 N   0  0  0  0  0  0  0  0  0  0  0  0
   -6.7590    1.4439    2.1554 C   0  0  0  0  0  0  0  0  0  0  0  0
   -8.0065    0.9750    1.9003 N   0  0  0  0  0  0  0  0  0  0  0  0
   -8.2580    0.1902    0.8232 C   0  0  0  0  0  0  0  0  0  0  0  0
   -9.4299   -0.2266    0.6244 O   0  0  0  0  0  0  0  0  0  0  0  0
   -7.2169   -0.1546   -0.0529 C   0  0  0  0  0  0  0  0  0  0  0  0
   -7.4650   -1.0167   -1.1739 N   0  0  0  0  0  0  0  0  0  0  0  0
   -5.9257    0.3387    0.2255 C   0  0  0  0  0  0  0  0  0  0  0  0
   -4.8293    0.0642   -0.6626 N   0  0  0  0  0  0  0  0  0  0  0  0
   -3.5124   -0.2637   -0.1983 C   0  0  0  0  0  0  0  0  0  0  0  0
   -3.3193   -0.5281    1.0200 O   0  0  0  0  0  0  0  0  0  0  0  0
   -2.4327   -0.3586   -1.1400 N   0  0  0  0  0  0  0  0  0  0  0  0
   -1.0473   -0.4712   -0.7711 C   0  0  0  0  0  0  0  0  0  0  0  0
   -0.1745   -1.1987   -1.5915 C   0  0  0  0  0  0  0  0  0  0  0  0
    1.1813   -1.3065   -1.2691 C   0  0  0  0  0  0  0  0  0  0  0  0
    1.6955   -0.6675   -0.1269 C   0  0  0  0  0  0  0  0  0  0  0  0
    0.8207    0.0704    0.6893 C   0  0  0  0  0  0  0  0  0  0  0  0
   -0.5348    0.1773    0.3653 C   0  0  0  0  0  0  0  0  0  0  0  0
    3.1293   -0.7756    0.2338 C   0  0  0  0  0  0  0  0  0  0  0  0
    3.4676   -0.6537    1.4425 O   0  0  0  0  0  0  0  0  0  0  0  0
    4.1336   -1.0006   -0.7743 N   0  0  0  0  0  0  0  0  0  0  0  0
    5.5568   -1.2226   -0.4881 C   0  0  1  0  0  0  0  0  0  0  0  0
    6.2270    0.0446    0.0832 C   0  0  0  0  0  0  0  0  0  0  0  0
    6.1434    1.2235   -0.8943 C   0  0  0  0  0  0  0  0  0  0  0  0
    6.8502    2.4175   -0.3354 C   0  0  0  0  0  0  0  0  0  0  0  0
    8.2095    2.5929   -0.5745 O   0  0  0  0  0  0  0  0  0  0  0  0
    6.2253    3.2418    0.3844 O   0  0  0  0  0  0  0  0  0  0  0  0
    5.7317   -2.4154    0.4136 C   0  0  0  0  0  0  0  0  0  0  0  0
    5.9340   -2.2512    1.7819 O   0  0  0  0  0  0  0  0  0  0  0  0
    5.6547   -3.5767   -0.0697 O   0  0  0  0  0  0  0  0  0  0  0  0
   -5.7313    1.1301    1.3203 N   0  0  0  0  0  0  0  0  0  0  0  0
   -7.3252    2.5192    3.9320 H   0  0  0  0  0  0  0  0  0  0  0  0
   -5.5826    2.6471    3.5054 H   0  0  0  0  0  0  0  0  0  0  0  0
   -6.6896   -1.3949   -1.7602 H   0  0  0  0  0  0  0  0  0  0  0  0
   -8.4324   -1.3357   -1.4031 H   0  0  0  0  0  0  0  0  0  0  0  0
   -4.9936    0.1054   -1.6931 H   0  0  0  0  0  0  0  0  0  0  0  0
   -2.6782   -0.4279   -2.1535 H   0  0  0  0  0  0  0  0  0  0  0  0
   -0.5506   -1.6985   -2.4756 H   0  0  0  0  0  0  0  0  0  0  0  0
    1.8153   -1.9108   -1.9038 H   0  0  0  0  0  0  0  0  0  0  0  0
    1.1896    0.5831    1.5692 H   0  0  0  0  0  0  0  0  0  0  0  0
   -1.1728    0.7883    0.9897 H   0  0  0  0  0  0  0  0  0  0  0  0
    3.8580   -0.9613   -1.7807 H   0  0  0  0  0  0  0  0  0  0  0  0
    6.0719   -1.4619   -1.4460 H   0  0  0  0  0  0  0  0  0  0  0  0
    7.2990   -0.1790    0.2826 H   0  0  0  0  0  0  0  0  0  0  0  0
    5.7584    0.3339    1.0480 H   0  0  0  0  0  0  0  0  0  0  0  0
    5.0805    1.4859   -1.0872 H   0  0  0  0  0  0  0  0  0  0  0  0
    6.6133    0.9456   -1.8625 H   0  0  0  0  0  0  0  0  0  0  0  0
    8.7063    3.3873   -0.1895 H   0  0  0  0  0  0  0  0  0  0  0  0
    6.0350   -3.0531    2.3924 H   0  0  0  0  0  0  0  0  0  0  0  0
   -4.7850    1.5299    1.5103 H   0  0  0  0  0  0  0  0  0  0  0  0
  1  2  1  0
  2  3  2  0
  3  4  1  0
  4  5  2  0
  4  6  1  0
  6  7  1  0
  6  8  2  0
  8  9  1  0
  9 10  1  0
 10 11  2  0
 10 12  1  0
 12 13  1  0
 13 14  2  0
 14 15  1  0
 15 16  2  0
 16 17  1  0
 17 18  2  0
 16 19  1  0
 19 20  2  0
 19 21  1  0
 21 22  1  0
 22 23  1  0
 23 24  1  0
 24 25  1  0
 25 26  1  0
 25 27  2  0
 22 28  1  0
 28 29  1  0
 28 30  2  0
  8 31  1  0
 31  2  1  0
 18 13  1  0
  1 32  1  0
  1 33  1  0
  7 34  1  0
  7 35  1  0
  9 36  1  0
 12 37  1  0
 14 38  1  0
 15 39  1  0
 17 40  1  0
 18 41  1  0
 21 42  1  0
 22 43  1  6
 23 44  1  0
 23 45  1  0
 24 46  1  0
 24 47  1  0
 26 48  1  0
 29 49  1  0
 31 50  1  0
M  END
$$$$
