
     RDKit          3D

123125  0  0  0  0  0  0  0  0999 V2000
   10.1687    2.1849   -0.7256 C   0  0  0  0  0  0  0  0  0  0  0  0
    9.0213    2.1107   -1.7361 C   0  0  1  0  0  0  0  0  0  0  0  0
    7.8268    1.5337   -1.1114 N   0  0  0  0  0  0  0  0  0  0  0  0
    7.6698    0.1205   -0.9143 C   0  0  0  0  0  0  0  0  0  0  0  0
    8.5992   -0.6723   -1.2300 O   0  0  0  0  0  0  0  0  0  0  0  0
    6.4059   -0.4224   -0.3001 C   0  0  2  0  0  0  0  0  0  0  0  0
    6.6139   -0.7893    1.1857 C   0  0  0  0  0  0  0  0  0  0  0  0
    6.8530    0.4374    2.0944 C   0  0  0  0  0  0  0  0  0  0  0  0
    8.3462    0.7640    2.3097 C   0  0  0  0  0  0  0  0  0  0  0  0
    8.9359    0.0987    3.5695 C   0  0  1  0  0  0  0  0  0  0  0  0
    8.9099   -1.3608    3.4518 N   0  0  0  0  0  0  0  0  0  0  0  0
   10.3404    0.5863    3.8130 C   0  0  0  0  0  0  0  0  0  0  0  0
   10.6470    1.2459    4.9992 O   0  0  0  0  0  0  0  0  0  0  0  0
   11.2398    0.3985    2.9495 O   0  0  0  0  0  0  0  0  0  0  0  0
    5.9620   -1.5997   -1.0526 N   0  0  0  0  0  0  0  0  0  0  0  0
    5.3473   -1.4911   -2.3446 C   0  0  0  0  0  0  0  0  0  0  0  0
    5.2369   -0.3667   -2.9049 O   0  0  0  0  0  0  0  0  0  0  0  0
    4.7853   -2.7087   -3.0183 C   0  0  0  0  0  0  0  0  0  0  0  0
    3.2668   -2.8231   -2.8070 C   0  0  0  0  0  0  0  0  0  0  0  0
    2.8630   -3.0697   -1.3376 C   0  0  1  0  0  0  0  0  0  0  0  0
    1.4032   -3.0302   -1.2150 N   0  0  0  0  0  0  0  0  0  0  0  0
    0.6820   -1.7968   -1.0704 C   0  0  0  0  0  0  0  0  0  0  0  0
    1.3070   -0.7031   -0.9926 O   0  0  0  0  0  0  0  0  0  0  0  0
   -0.8243   -1.7967   -1.0401 C   0  0  2  0  0  0  0  0  0  0  0  0
   -1.3803   -1.1249   -2.2969 C   0  0  0  0  0  0  0  0  0  0  0  0
   -1.3067   -1.0949    0.1520 N   0  0  0  0  0  0  0  0  0  0  0  0
   -2.5778   -1.3952    0.7482 C   0  0  0  0  0  0  0  0  0  0  0  0
   -3.1418   -2.5000    0.5222 O   0  0  0  0  0  0  0  0  0  0  0  0
   -3.2505   -0.3955    1.6533 C   0  0  1  0  0  0  0  0  0  0  0  0
   -2.6751   -0.5070    3.0615 C   0  0  0  0  0  0  0  0  0  0  0  0
   -3.0405    0.9241    1.1792 O   0  0  0  0  0  0  0  0  0  0  0  0
   -3.8949    1.2387    0.0870 C   0  0  2  0  0  0  0  0  0  0  0  0
   -3.1056    2.1541   -0.8982 C   0  0  1  0  0  0  0  0  0  0  0  0
   -3.5993    1.9857   -2.2705 N   0  0  0  0  0  0  0  0  0  0  0  0
   -2.8087    2.3295   -3.4164 C   0  0  0  0  0  0  0  0  0  0  0  0
   -3.3480    2.0966   -4.7895 C   0  0  0  0  0  0  0  0  0  0  0  0
   -1.6453    2.7946   -3.2749 O   0  0  0  0  0  0  0  0  0  0  0  0
   -3.2350    3.6358   -0.4747 C   0  0  2  0  0  0  0  0  0  0  0  0
   -2.7059    3.8178    0.8241 O   0  0  0  0  0  0  0  0  0  0  0  0
   -3.8274    3.8111    1.6654 C   0  0  0  0  0  0  0  0  0  0  0  0
   -4.9935    3.4609    0.7692 C   0  0  1  0  0  0  0  0  0  0  0  0
   -4.5998    3.9689   -0.4630 O   0  0  0  0  0  0  0  0  0  0  0  0
   -5.1943    1.9291    0.6259 C   0  0  1  0  0  0  0  0  0  0  0  0
   -6.2741    1.7117   -0.2710 O   0  0  0  0  0  0  0  0  0  0  0  0
   -6.9766    0.5153    0.0250 C   0  0  2  0  0  0  0  0  0  0  0  0
   -7.6025    0.0829   -1.1725 O   0  0  0  0  0  0  0  0  0  0  0  0
   -8.3901   -1.0686   -0.9304 C   0  0  2  0  0  0  0  0  0  0  0  0
   -8.7284   -1.7215   -2.2785 C   0  0  0  0  0  0  0  0  0  0  0  0
   -9.4898   -2.8851   -2.0950 O   0  0  0  0  0  0  0  0  0  0  0  0
   -9.6720   -0.6839   -0.1454 C   0  0  1  0  0  0  0  0  0  0  0  0
  -10.0178   -1.7379    0.7175 O   0  0  0  0  0  0  0  0  0  0  0  0
   -9.4679    0.6253    0.6616 C   0  0  2  0  0  0  0  0  0  0  0  0
   -9.7755    1.7318   -0.1499 O   0  0  0  0  0  0  0  0  0  0  0  0
   -8.0165    0.7741    1.1637 C   0  0  1  0  0  0  0  0  0  0  0  0
   -7.7697   -0.1467    2.2814 N   0  0  0  0  0  0  0  0  0  0  0  0
   -7.1807    0.2679    3.5224 C   0  0  0  0  0  0  0  0  0  0  0  0
   -6.6802   -0.7585    4.4853 C   0  0  0  0  0  0  0  0  0  0  0  0
   -7.0690    1.4916    3.8046 O   0  0  0  0  0  0  0  0  0  0  0  0
    3.3794   -4.3897   -0.8321 C   0  0  0  0  0  0  0  0  0  0  0  0
    4.1713   -4.4294    0.3114 O   0  0  0  0  0  0  0  0  0  0  0  0
    3.0884   -5.4606   -1.4306 O   0  0  0  0  0  0  0  0  0  0  0  0
    8.7135    3.4758   -2.2851 C   0  0  0  0  0  0  0  0  0  0  0  0
    8.8011    3.7062   -3.6546 O   0  0  0  0  0  0  0  0  0  0  0  0
    8.3698    4.4113   -1.5126 O   0  0  0  0  0  0  0  0  0  0  0  0
    9.8628    2.7662    0.1708 H   0  0  0  0  0  0  0  0  0  0  0  0
   10.4633    1.1637   -0.4057 H   0  0  0  0  0  0  0  0  0  0  0  0
   11.0555    2.6699   -1.1869 H   0  0  0  0  0  0  0  0  0  0  0  0
    9.3386    1.4652   -2.5849 H   0  0  0  0  0  0  0  0  0  0  0  0
    7.0663    2.1685   -0.7766 H   0  0  0  0  0  0  0  0  0  0  0  0
    5.6018    0.3449   -0.3549 H   0  0  0  0  0  0  0  0  0  0  0  0
    7.4358   -1.5300    1.2830 H   0  0  0  0  0  0  0  0  0  0  0  0
    5.6879   -1.2941    1.5401 H   0  0  0  0  0  0  0  0  0  0  0  0
    6.3642    0.2612    3.0778 H   0  0  0  0  0  0  0  0  0  0  0  0
    6.3455    1.3277    1.6630 H   0  0  0  0  0  0  0  0  0  0  0  0
    8.4417    1.8669    2.4226 H   0  0  0  0  0  0  0  0  0  0  0  0
    8.9451    0.4771    1.4217 H   0  0  0  0  0  0  0  0  0  0  0  0
    8.3137    0.3930    4.4441 H   0  0  0  0  0  0  0  0  0  0  0  0
    9.2622   -1.7751    4.3457 H   0  0  0  0  0  0  0  0  0  0  0  0
    9.5606   -1.6622    2.6895 H   0  0  0  0  0  0  0  0  0  0  0  0
   11.5860    1.5802    5.1799 H   0  0  0  0  0  0  0  0  0  0  0  0
    6.0746   -2.5510   -0.6334 H   0  0  0  0  0  0  0  0  0  0  0  0
    5.2980   -3.6236   -2.6520 H   0  0  0  0  0  0  0  0  0  0  0  0
    4.9889   -2.6380   -4.1086 H   0  0  0  0  0  0  0  0  0  0  0  0
    2.7846   -1.8882   -3.1689 H   0  0  0  0  0  0  0  0  0  0  0  0
    2.8790   -3.6512   -3.4400 H   0  0  0  0  0  0  0  0  0  0  0  0
    3.2963   -2.2699   -0.6984 H   0  0  0  0  0  0  0  0  0  0  0  0
    0.8601   -3.9129   -1.3541 H   0  0  0  0  0  0  0  0  0  0  0  0
   -1.1821   -2.8492   -1.0220 H   0  0  0  0  0  0  0  0  0  0  0  0
   -1.0459   -0.0671   -2.3557 H   0  0  0  0  0  0  0  0  0  0  0  0
   -2.4909   -1.1446   -2.2779 H   0  0  0  0  0  0  0  0  0  0  0  0
   -1.0345   -1.6645   -3.2044 H   0  0  0  0  0  0  0  0  0  0  0  0
   -0.8284   -0.2101    0.4373 H   0  0  0  0  0  0  0  0  0  0  0  0
   -4.3377   -0.6297    1.7296 H   0  0  0  0  0  0  0  0  0  0  0  0
   -1.5868   -0.2819    3.0576 H   0  0  0  0  0  0  0  0  0  0  0  0
   -3.1862    0.2169    3.7316 H   0  0  0  0  0  0  0  0  0  0  0  0
   -2.8345   -1.5307    3.4635 H   0  0  0  0  0  0  0  0  0  0  0  0
   -4.1734    0.3199   -0.4824 H   0  0  0  0  0  0  0  0  0  0  0  0
   -2.0329    1.8585   -0.8675 H   0  0  0  0  0  0  0  0  0  0  0  0
   -4.5520    1.5865   -2.4320 H   0  0  0  0  0  0  0  0  0  0  0  0
   -3.3649    1.0068   -4.9985 H   0  0  0  0  0  0  0  0  0  0  0  0
   -2.7142    2.6025   -5.5486 H   0  0  0  0  0  0  0  0  0  0  0  0
   -4.3801    2.4990   -4.8603 H   0  0  0  0  0  0  0  0  0  0  0  0
   -2.6957    4.2958   -1.1865 H   0  0  0  0  0  0  0  0  0  0  0  0
   -3.9660    4.8286    2.0908 H   0  0  0  0  0  0  0  0  0  0  0  0
   -3.6933    3.0883    2.4984 H   0  0  0  0  0  0  0  0  0  0  0  0
   -5.9292    3.9518    1.1149 H   0  0  0  0  0  0  0  0  0  0  0  0
   -5.4239    1.5415    1.6446 H   0  0  0  0  0  0  0  0  0  0  0  0
   -6.2608   -0.2841    0.3358 H   0  0  0  0  0  0  0  0  0  0  0  0
   -7.8040   -1.8230   -0.3515 H   0  0  0  0  0  0  0  0  0  0  0  0
   -9.3057   -1.0100   -2.9072 H   0  0  0  0  0  0  0  0  0  0  0  0
   -7.7886   -1.9622   -2.8260 H   0  0  0  0  0  0  0  0  0  0  0  0
   -8.8656   -3.5844   -1.7677 H   0  0  0  0  0  0  0  0  0  0  0  0
  -10.5107   -0.5191   -0.8639 H   0  0  0  0  0  0  0  0  0  0  0  0
  -10.9667   -1.6009    0.9762 H   0  0  0  0  0  0  0  0  0  0  0  0
  -10.1457    0.6315    1.5486 H   0  0  0  0  0  0  0  0  0  0  0  0
  -10.7657    1.7985   -0.1855 H   0  0  0  0  0  0  0  0  0  0  0  0
   -7.9134    1.8225    1.5230 H   0  0  0  0  0  0  0  0  0  0  0  0
   -7.8831   -1.1722    2.1168 H   0  0  0  0  0  0  0  0  0  0  0  0
   -5.8355   -1.3134    4.0262 H   0  0  0  0  0  0  0  0  0  0  0  0
   -7.4962   -1.4700    4.7296 H   0  0  0  0  0  0  0  0  0  0  0  0
   -6.3286   -0.2778    5.4229 H   0  0  0  0  0  0  0  0  0  0  0  0
    4.5266   -5.3087    0.6671 H   0  0  0  0  0  0  0  0  0  0  0  0
    8.5946    4.6191   -4.0421 H   0  0  0  0  0  0  0  0  0  0  0  0
  1  2  1  0
  2  3  1  0
  3  4  1  0
  4  5  2  0
  4  6  1  0
  6  7  1  0
  7  8  1  0
  8  9  1  0
  9 10  1  0
 10 11  1  0
 10 12  1  0
 12 13  1  0
 12 14  2  0
  6 15  1  0
 15 16  1  0
 16 17  2  0
 16 18  1  0
 18 19  1  0
 19 20  1  0
 20 21  1  0
 21 22  1  0
 22 23  2  0
 22 24  1  0
 24 25  1  0
 24 26  1  0
 26 27  1  0
 27 28  2  0
 27 29  1  0
 29 30  1  0
 29 31  1  0
 31 32  1  0
 32 33  1  0
 33 34  1  0
 34 35  1  0
 35 36  1  0
 35 37  2  0
 33 38  1  0
 38 39  1  0
 39 40  1  0
 40 41  1  0
 41 42  1  0
 41 43  1  0
 43 44  1  0
 44 45  1  0
 45 46  1  0
 46 47  1  0
 47 48  1  0
 48 49  1  0
 47 50  1  0
 50 51  1  0
 50 52  1  0
 52 53  1  0
 52 54  1  0
 54 55  1  0
 55 56  1  0
 56 57  1  0
 56 58  2  0
 20 59  1  0
 59 60  1  0
 59 61  2  0
  2 62  1  0
 62 63  1  0
 62 64  2  0
 43 32  1  0
 54 45  1  0
 42 38  1  0
  1 65  1  0
  1 66  1  0
  1 67  1  0
  2 68  1  6
  3 69  1  0
  6 70  1  1
  7 71  1  0
  7 72  1  0
  8 73  1  0
  8 74  1  0
  9 75  1  0
  9 76  1  0
 10 77  1  1
 11 78  1  0
 11 79  1  0
 13 80  1  0
 15 81  1  0
 18 82  1  0
 18 83  1  0
 19 84  1  0
 19 85  1  0
 20 86  1  1
 21 87  1  0
 24 88  1  1
 25 89  1  0
 25 90  1  0
 25 91  1  0
 26 92  1  0
 29 93  1  1
 30 94  1  0
 30 95  1  0
 30 96  1  0
 32 97  1  6
 33 98  1  6
 34 99  1  0
 36100  1  0
 36101  1  0
 36102  1  0
 38103  1  6
 40104  1  0
 40105  1  0
 41106  1  1
 43107  1  1
 45108  1  1
 47109  1  1
 48110  1  0
 48111  1  0
 49112  1  0
 50113  1  6
 51114  1  0
 52115  1  1
 53116  1  0
 54117  1  1
 55118  1  0
 57119  1  0
 57120  1  0
 57121  1  0
 60122  1  0
 63123  1  0
M  END
$$$$
