
     RDKit          3D

 48 51  0  0  0  0  0  0  0  0999 V2000
   -2.2047   -2.0254    2.6251 C   0  0  0  0  0  0  0  0  0  0  0  0
   -1.6090   -0.9405    1.7084 C   0  0  1  0  0  0  0  0  0  0  0  0
   -0.1104   -1.1109    1.5969 C   0  0  0  0  0  0  0  0  0  0  0  0
    0.7363   -0.0624    1.5103 N   0  0  0  0  0  0  0  0  0  0  0  0
    2.0302   -0.4430    1.3219 C   0  0  0  0  0  0  0  0  0  0  0  0
    2.2214   -1.8259    1.2565 C   0  0  0  0  0  0  0  0  0  0  0  0
    0.7219   -2.5653    1.4300 S   0  0  0  0  0  0  0  0  0  0  0  0
    3.1090    0.5608    1.1454 C   0  0  0  0  0  0  0  0  0  0  0  0
    2.7788    1.8938    0.8355 C   0  0  0  0  0  0  0  0  0  0  0  0
    3.7807    2.8516    0.6553 C   0  0  0  0  0  0  0  0  0  0  0  0
    5.1265    2.4936    0.7873 C   0  0  0  0  0  0  0  0  0  0  0  0
    5.4670    1.1736    1.1022 C   0  0  0  0  0  0  0  0  0  0  0  0
    4.4670    0.2126    1.2809 C   0  0  0  0  0  0  0  0  0  0  0  0
    6.1576    3.4809    0.6023 C   0  0  0  0  0  0  0  0  0  0  0  0
    6.9866    4.2746    0.4536 N   0  0  0  0  0  0  0  0  0  0  0  0
   -2.3175   -0.7989    0.3087 C   0  0  2  0  0  0  0  0  0  0  0  0
   -3.6698   -0.4458    0.5168 O   0  0  0  0  0  0  0  0  0  0  0  0
   -2.2879   -2.1352   -0.5086 C   0  0  0  0  0  0  0  0  0  0  0  0
   -2.8857   -1.9716   -1.8349 N   0  0  0  0  0  0  0  0  0  0  0  0
   -4.1947   -1.9078   -2.1315 C   0  0  0  0  0  0  0  0  0  0  0  0
   -4.3867   -1.7580   -3.4561 N   0  0  0  0  0  0  0  0  0  0  0  0
   -3.1227   -1.7383   -3.9333 C   0  0  0  0  0  0  0  0  0  0  0  0
   -2.2017   -1.8703   -2.9595 N   0  0  0  0  0  0  0  0  0  0  0  0
   -1.6478    0.3639   -0.4585 C   0  0  0  0  0  0  0  0  0  0  0  0
   -2.0390    1.7060   -0.2176 C   0  0  0  0  0  0  0  0  0  0  0  0
   -3.0303    2.0057    0.6596 F   0  0  0  0  0  0  0  0  0  0  0  0
   -1.3855    2.7657   -0.8545 C   0  0  0  0  0  0  0  0  0  0  0  0
   -0.3168    2.5215   -1.7143 C   0  0  0  0  0  0  0  0  0  0  0  0
    0.1148    1.2152   -1.9321 C   0  0  0  0  0  0  0  0  0  0  0  0
    1.1802    0.9812   -2.7375 F   0  0  0  0  0  0  0  0  0  0  0  0
   -0.5325    0.1481   -1.3047 C   0  0  0  0  0  0  0  0  0  0  0  0
   -2.1118   -3.0363    2.1789 H   0  0  0  0  0  0  0  0  0  0  0  0
   -1.6657   -2.0309    3.5971 H   0  0  0  0  0  0  0  0  0  0  0  0
   -3.2710   -1.8186    2.8485 H   0  0  0  0  0  0  0  0  0  0  0  0
   -1.7715    0.0201    2.2473 H   0  0  0  0  0  0  0  0  0  0  0  0
    3.1522   -2.3467    1.0822 H   0  0  0  0  0  0  0  0  0  0  0  0
    1.7451    2.1959    0.7202 H   0  0  0  0  0  0  0  0  0  0  0  0
    3.5052    3.8707    0.4116 H   0  0  0  0  0  0  0  0  0  0  0  0
    6.5061    0.8872    1.2125 H   0  0  0  0  0  0  0  0  0  0  0  0
    4.7630   -0.7945    1.5396 H   0  0  0  0  0  0  0  0  0  0  0  0
   -4.1627   -1.2277    0.8761 H   0  0  0  0  0  0  0  0  0  0  0  0
   -2.8539   -2.9262    0.0269 H   0  0  0  0  0  0  0  0  0  0  0  0
   -1.2582   -2.5293   -0.6133 H   0  0  0  0  0  0  0  0  0  0  0  0
   -4.9953   -1.9747   -1.4068 H   0  0  0  0  0  0  0  0  0  0  0  0
   -2.8775   -1.6308   -4.9812 H   0  0  0  0  0  0  0  0  0  0  0  0
   -1.6992    3.7846   -0.6663 H   0  0  0  0  0  0  0  0  0  0  0  0
    0.1901    3.3480   -2.1955 H   0  0  0  0  0  0  0  0  0  0  0  0
   -0.1301   -0.8401   -1.4656 H   0  0  0  0  0  0  0  0  0  0  0  0
  1  2  1  0
  2  3  1  0
  3  4  2  0
  4  5  1  0
  5  6  2  0
  6  7  1  0
  5  8  1  0
  8  9  2  0
  9 10  1  0
 10 11  2  0
 11 12  1  0
 12 13  2  0
 11 14  1  0
 14 15  3  0
  2 16  1  0
 16 17  1  1
 16 18  1  0
 18 19  1  0
 19 20  1  0
 20 21  2  0
 21 22  1  0
 22 23  2  0
 16 24  1  0
 24 25  2  0
 25 26  1  0
 25 27  1  0
 27 28  2  0
 28 29  1  0
 29 30  1  0
 29 31  2  0
  7  3  1  0
 13  8  1  0
 23 19  1  0
 31 24  1  0
  1 32  1  0
  1 33  1  0
  1 34  1  0
  2 35  1  1
  6 36  1  0
  9 37  1  0
 10 38  1  0
 12 39  1  0
 13 40  1  0
 17 41  1  0
 18 42  1  0
 18 43  1  0
 20 44  1  0
 22 45  1  0
 27 46  1  0
 28 47  1  0
 31 48  1  0
M  END
$$$$
