
     RDKit          3D

 43 45  0  0  0  0  0  0  0  0999 V2000
    3.1520   -3.0328   -0.6201 C   0  0  0  0  0  0  0  0  0  0  0  0
    3.2638   -1.5471   -0.7937 C   0  0  0  0  0  0  0  0  0  0  0  0
    2.4081   -0.6878   -0.0873 C   0  0  0  0  0  0  0  0  0  0  0  0
    2.5184    0.7081   -0.2294 C   0  0  0  0  0  0  0  0  0  0  0  0
    1.6113    1.6343    0.5449 C   0  0  0  0  0  0  0  0  0  0  0  0
    0.1674    1.2373    0.4207 C   0  0  0  0  0  0  0  0  0  0  0  0
   -0.5087    0.6528    1.4397 N   0  0  0  0  0  0  0  0  0  0  0  0
   -1.7208    0.3088    1.0151 N   0  0  0  0  0  0  0  0  0  0  0  0
   -1.8099    0.6586   -0.2844 C   0  0  0  0  0  0  0  0  0  0  0  0
   -0.6533    1.2523   -0.7044 C   0  0  0  0  0  0  0  0  0  0  0  0
   -0.5349    1.6552   -2.0425 C   0  0  0  0  0  0  0  0  0  0  0  0
    0.6186    2.3189   -2.5597 N   0  0  0  0  0  0  0  0  0  0  0  0
   -1.5942    1.4152   -2.8706 N   0  0  0  0  0  0  0  0  0  0  0  0
   -2.7370    0.8101   -2.4239 C   0  0  0  0  0  0  0  0  0  0  0  0
   -2.8503    0.4257   -1.1209 N   0  0  0  0  0  0  0  0  0  0  0  0
   -2.7264   -0.3930    1.8424 C   0  0  0  0  0  0  0  0  0  0  0  0
   -4.0382    0.4157    1.8728 C   0  0  0  0  0  0  0  0  0  0  0  0
   -2.2154   -0.5463    3.2923 C   0  0  0  0  0  0  0  0  0  0  0  0
   -2.9861   -1.7969    1.2638 C   0  0  0  0  0  0  0  0  0  0  0  0
    3.5390    1.2335   -1.0390 C   0  0  0  0  0  0  0  0  0  0  0  0
    4.4045    0.3803   -1.7276 C   0  0  0  0  0  0  0  0  0  0  0  0
    4.2702   -1.0045   -1.6058 C   0  0  0  0  0  0  0  0  0  0  0  0
    2.0967   -3.3262   -0.4341 H   0  0  0  0  0  0  0  0  0  0  0  0
    3.4991   -3.5622   -1.5330 H   0  0  0  0  0  0  0  0  0  0  0  0
    3.7741   -3.3516    0.2421 H   0  0  0  0  0  0  0  0  0  0  0  0
    1.6547   -1.1060    0.5696 H   0  0  0  0  0  0  0  0  0  0  0  0
    1.9075    1.5905    1.6149 H   0  0  0  0  0  0  0  0  0  0  0  0
    1.7316    2.6926    0.2350 H   0  0  0  0  0  0  0  0  0  0  0  0
    1.3464    2.7293   -1.9430 H   0  0  0  0  0  0  0  0  0  0  0  0
    0.6875    2.5114   -3.5836 H   0  0  0  0  0  0  0  0  0  0  0  0
   -3.5553    0.6351   -3.1086 H   0  0  0  0  0  0  0  0  0  0  0  0
   -3.8427    1.4507    2.2270 H   0  0  0  0  0  0  0  0  0  0  0  0
   -4.7760   -0.0580    2.5561 H   0  0  0  0  0  0  0  0  0  0  0  0
   -4.5018    0.4731    0.8668 H   0  0  0  0  0  0  0  0  0  0  0  0
   -2.0123    0.4503    3.7406 H   0  0  0  0  0  0  0  0  0  0  0  0
   -2.9676   -1.0655    3.9251 H   0  0  0  0  0  0  0  0  0  0  0  0
   -1.2761   -1.1402    3.3151 H   0  0  0  0  0  0  0  0  0  0  0  0
   -3.6919   -2.3635    1.9091 H   0  0  0  0  0  0  0  0  0  0  0  0
   -3.4281   -1.7371    0.2478 H   0  0  0  0  0  0  0  0  0  0  0  0
   -2.0340   -2.3661    1.1959 H   0  0  0  0  0  0  0  0  0  0  0  0
    3.6690    2.3042   -1.1353 H   0  0  0  0  0  0  0  0  0  0  0  0
    5.1866    0.7937   -2.3512 H   0  0  0  0  0  0  0  0  0  0  0  0
    4.9549   -1.6528   -2.1386 H   0  0  0  0  0  0  0  0  0  0  0  0
  1  2  1  0
  2  3  2  0
  3  4  1  0
  4  5  1  0
  5  6  1  0
  6  7  2  0
  7  8  1  0
  8  9  1  0
  9 10  2  0
 10 11  1  0
 11 12  1  0
 11 13  2  0
 13 14  1  0
 14 15  2  0
  8 16  1  0
 16 17  1  0
 16 18  1  0
 16 19  1  0
  4 20  2  0
 20 21  1  0
 21 22  2  0
 22  2  1  0
 10  6  1  0
 15  9  1  0
  1 23  1  0
  1 24  1  0
  1 25  1  0
  3 26  1  0
  5 27  1  0
  5 28  1  0
 12 29  1  0
 12 30  1  0
 14 31  1  0
 17 32  1  0
 17 33  1  0
 17 34  1  0
 18 35  1  0
 18 36  1  0
 18 37  1  0
 19 38  1  0
 19 39  1  0
 19 40  1  0
 20 41  1  0
 21 42  1  0
 22 43  1  0
M  END
$$$$
