
     RDKit          3D

 30 30  0  0  0  0  0  0  0  0999 V2000
    1.8829   -0.2049   -0.0015 N   0  0  0  0  0  0  0  0  0  0  0  0
    0.6784    0.1434   -0.7668 C   0  0  1  0  0  0  0  0  0  0  0  0
   -0.0996   -1.1446   -1.1395 C   0  0  2  0  0  0  0  0  0  0  0  0
    0.3729   -1.6615   -2.3562 O   0  0  0  0  0  0  0  0  0  0  0  0
   -1.4854   -0.8684   -1.2439 O   0  0  0  0  0  0  0  0  0  0  0  0
   -2.0505   -0.6622    0.0446 C   0  0  2  0  0  0  0  0  0  0  0  0
   -3.5023   -0.2071   -0.1441 C   0  0  0  0  0  0  0  0  0  0  0  0
   -4.1635   -0.1783    1.0912 O   0  0  0  0  0  0  0  0  0  0  0  0
   -1.2425    0.3710    0.9020 C   0  0  1  0  0  0  0  0  0  0  0  0
   -0.5675   -0.2902    1.9420 O   0  0  0  0  0  0  0  0  0  0  0  0
   -0.2250    1.1229    0.0275 C   0  0  1  0  0  0  0  0  0  0  0  0
    0.5382    1.9942    0.8230 O   0  0  0  0  0  0  0  0  0  0  0  0
    3.1706    0.3708   -0.2652 C   0  0  0  0  0  0  0  0  0  0  0  0
    4.3321    0.0243    0.6080 C   0  0  0  0  0  0  0  0  0  0  0  0
    3.3266    1.1915   -1.2094 O   0  0  0  0  0  0  0  0  0  0  0  0
    1.7843   -0.8183    0.8391 H   0  0  0  0  0  0  0  0  0  0  0  0
    0.9689    0.6628   -1.7072 H   0  0  0  0  0  0  0  0  0  0  0  0
    0.0718   -1.9339   -0.3700 H   0  0  0  0  0  0  0  0  0  0  0  0
    0.0552   -1.0562   -3.0765 H   0  0  0  0  0  0  0  0  0  0  0  0
   -2.0917   -1.6422    0.5749 H   0  0  0  0  0  0  0  0  0  0  0  0
   -3.5214    0.8033   -0.6119 H   0  0  0  0  0  0  0  0  0  0  0  0
   -4.0227   -0.9203   -0.8222 H   0  0  0  0  0  0  0  0  0  0  0  0
   -5.0853    0.1372    0.9024 H   0  0  0  0  0  0  0  0  0  0  0  0
   -1.9204    1.1369    1.3486 H   0  0  0  0  0  0  0  0  0  0  0  0
   -1.2520   -0.5274    2.6210 H   0  0  0  0  0  0  0  0  0  0  0  0
   -0.8134    1.7264   -0.7048 H   0  0  0  0  0  0  0  0  0  0  0  0
    0.9886    2.6251    0.2024 H   0  0  0  0  0  0  0  0  0  0  0  0
    4.3913   -1.0771    0.7331 H   0  0  0  0  0  0  0  0  0  0  0  0
    4.2004    0.4987    1.6026 H   0  0  0  0  0  0  0  0  0  0  0  0
    5.2811    0.3843    0.1567 H   0  0  0  0  0  0  0  0  0  0  0  0
  1  2  1  0
  2  3  1  0
  3  4  1  0
  3  5  1  0
  5  6  1  0
  6  7  1  0
  7  8  1  0
  6  9  1  0
  9 10  1  0
  9 11  1  0
 11 12  1  0
  1 13  1  0
 13 14  1  0
 13 15  2  0
 11  2  1  0
  1 16  1  0
  2 17  1  6
  3 18  1  1
  4 19  1  0
  6 20  1  1
  7 21  1  0
  7 22  1  0
  8 23  1  0
  9 24  1  1
 10 25  1  0
 11 26  1  6
 12 27  1  0
 14 28  1  0
 14 29  1  0
 14 30  1  0
M  END
$$$$
