
     RDKit          3D

 39 41  0  0  0  0  0  0  0  0999 V2000
    2.6912    4.3446   -0.0244 C   0  0  0  0  0  0  0  0  0  0  0  0
    2.9928    2.9102    0.2716 C   0  0  0  0  0  0  0  0  0  0  0  0
    1.9933    1.9388    0.1577 C   0  0  0  0  0  0  0  0  0  0  0  0
    2.3191    0.6116    0.4460 C   0  0  0  0  0  0  0  0  0  0  0  0
    3.5829    0.2919    0.8274 N   0  0  0  0  0  0  0  0  0  0  0  0
    4.5439    1.2475    0.9344 C   0  0  0  0  0  0  0  0  0  0  0  0
    5.8640    0.8899    1.3367 N   0  0  0  0  0  0  0  0  0  0  0  0
    4.2447    2.5446    0.6576 N   0  0  0  0  0  0  0  0  0  0  0  0
    1.3232   -0.4178    0.3421 C   0  0  0  0  0  0  0  0  0  0  0  0
    0.4766   -1.2708    0.2518 C   0  0  0  0  0  0  0  0  0  0  0  0
   -0.5485   -2.2789    0.1368 C   0  0  0  0  0  0  0  0  0  0  0  0
   -1.8448   -2.0817    0.6723 C   0  0  0  0  0  0  0  0  0  0  0  0
   -2.2203   -0.8143    1.4113 C   0  0  0  0  0  0  0  0  0  0  0  0
   -2.0078    0.3686    0.5772 N   0  0  0  0  0  0  0  0  0  0  0  0
   -2.6499    0.5668   -0.6606 N   0  0  0  0  0  0  0  0  0  0  0  0
   -2.2225    1.3788   -1.6418 C   0  0  0  0  0  0  0  0  0  0  0  0
   -3.1441    1.3117   -2.6704 C   0  0  0  0  0  0  0  0  0  0  0  0
   -4.1094    0.4900   -2.3119 O   0  0  0  0  0  0  0  0  0  0  0  0
   -3.8116    0.0526   -1.1105 C   0  0  0  0  0  0  0  0  0  0  0  0
   -4.5488   -0.7288   -0.4550 O   0  0  0  0  0  0  0  0  0  0  0  0
   -2.7946   -3.1125    0.5505 C   0  0  0  0  0  0  0  0  0  0  0  0
   -2.4754   -4.2994   -0.1130 C   0  0  0  0  0  0  0  0  0  0  0  0
   -1.2020   -4.4791   -0.6532 C   0  0  0  0  0  0  0  0  0  0  0  0
   -0.2407   -3.4748   -0.5270 C   0  0  0  0  0  0  0  0  0  0  0  0
    1.9075    4.7136    0.6702 H   0  0  0  0  0  0  0  0  0  0  0  0
    2.3304    4.4443   -1.0698 H   0  0  0  0  0  0  0  0  0  0  0  0
    3.6014    4.9688    0.0998 H   0  0  0  0  0  0  0  0  0  0  0  0
    0.9893    2.2110   -0.1476 H   0  0  0  0  0  0  0  0  0  0  0  0
    6.6066    1.6191    1.4210 H   0  0  0  0  0  0  0  0  0  0  0  0
    6.1002   -0.1043    1.5508 H   0  0  0  0  0  0  0  0  0  0  0  0
   -3.2746   -0.8338    1.7596 H   0  0  0  0  0  0  0  0  0  0  0  0
   -1.5864   -0.7392    2.3210 H   0  0  0  0  0  0  0  0  0  0  0  0
   -1.2588    1.0388    0.8646 H   0  0  0  0  0  0  0  0  0  0  0  0
   -1.3146    1.9674   -1.6158 H   0  0  0  0  0  0  0  0  0  0  0  0
   -3.0979    1.8393   -3.6135 H   0  0  0  0  0  0  0  0  0  0  0  0
   -3.7867   -2.9997    0.9696 H   0  0  0  0  0  0  0  0  0  0  0  0
   -3.2166   -5.0828   -0.2057 H   0  0  0  0  0  0  0  0  0  0  0  0
   -0.9575   -5.4003   -1.1662 H   0  0  0  0  0  0  0  0  0  0  0  0
    0.7463   -3.6317   -0.9460 H   0  0  0  0  0  0  0  0  0  0  0  0
  1  2  1  0
  2  3  2  0
  3  4  1  0
  4  5  2  0
  5  6  1  0
  6  7  1  0
  6  8  2  0
  4  9  1  0
  9 10  3  0
 10 11  1  0
 11 12  1  0
 12 13  1  0
 13 14  1  0
 14 15  1  0
 15 16  1  0
 16 17  2  0
 17 18  1  0
 18 19  1  0
 19 20  2  0
 12 21  2  0
 21 22  1  0
 22 23  2  0
 23 24  1  0
  8  2  1  0
 24 11  2  0
 19 15  1  0
  1 25  1  0
  1 26  1  0
  1 27  1  0
  3 28  1  0
  7 29  1  0
  7 30  1  0
 13 31  1  0
 13 32  1  0
 14 33  1  0
 16 34  1  0
 17 35  1  0
 21 36  1  0
 22 37  1  0
 23 38  1  0
 24 39  1  0
M  END
$$$$
