
     RDKit          3D

 46 49  0  0  0  0  0  0  0  0999 V2000
    0.6788    0.8520   -0.4466 C   0  0  2  0  0  0  0  0  0  0  0  0
    0.1605    2.3228   -0.5143 C   0  0  0  0  0  0  0  0  0  0  0  0
   -1.3570    2.4421   -0.7160 C   0  0  0  0  0  0  0  0  0  0  0  0
   -1.8790    1.5684   -1.8745 C   0  0  0  0  0  0  0  0  0  0  0  0
   -1.1160    0.2374   -2.0562 C   0  0  0  0  0  0  0  0  0  0  0  0
   -0.3900   -0.2227   -0.7631 C   0  0  1  0  0  0  0  0  0  0  0  0
    0.3682   -1.5452   -1.0126 C   0  0  0  0  0  0  0  0  0  0  0  0
    1.2015   -1.9686    0.2165 C   0  0  0  0  0  0  0  0  0  0  0  0
    1.9961   -0.8660    0.8182 N   0  0  0  0  0  0  0  0  0  0  0  0
    3.4362   -0.8800    0.4856 C   0  0  0  0  0  0  0  0  0  0  0  0
    3.7030   -0.6037   -0.9711 C   0  0  0  0  0  0  0  0  0  0  0  0
    4.2046    0.5629   -1.3867 C   0  0  0  0  0  0  0  0  0  0  0  0
    1.3660    0.4822    0.8804 C   0  0  2  0  0  0  0  0  0  0  0  0
    0.3647    0.5393    2.0487 C   0  0  0  0  0  0  0  0  0  0  0  0
   -0.9658   -0.1076    1.7419 C   0  0  0  0  0  0  0  0  0  0  0  0
   -1.3583   -0.4363    0.4169 C   0  0  0  0  0  0  0  0  0  0  0  0
   -2.5965   -1.0874    0.2251 C   0  0  0  0  0  0  0  0  0  0  0  0
   -3.4583   -1.3265    1.3018 C   0  0  0  0  0  0  0  0  0  0  0  0
   -4.6881   -1.9502    1.1023 O   0  0  0  0  0  0  0  0  0  0  0  0
   -3.0849   -0.9431    2.5886 C   0  0  0  0  0  0  0  0  0  0  0  0
   -1.8467   -0.3426    2.8087 C   0  0  0  0  0  0  0  0  0  0  0  0
    1.4582    0.7961   -1.2365 H   0  0  0  0  0  0  0  0  0  0  0  0
    0.6528    2.8383   -1.3690 H   0  0  0  0  0  0  0  0  0  0  0  0
    0.4495    2.8968    0.3913 H   0  0  0  0  0  0  0  0  0  0  0  0
   -1.6160    3.5044   -0.9159 H   0  0  0  0  0  0  0  0  0  0  0  0
   -1.8750    2.1667    0.2267 H   0  0  0  0  0  0  0  0  0  0  0  0
   -2.9541    1.3513   -1.6931 H   0  0  0  0  0  0  0  0  0  0  0  0
   -1.8195    2.1464   -2.8226 H   0  0  0  0  0  0  0  0  0  0  0  0
   -1.8025   -0.5422   -2.4459 H   0  0  0  0  0  0  0  0  0  0  0  0
   -0.3578    0.3827   -2.8588 H   0  0  0  0  0  0  0  0  0  0  0  0
   -0.3524   -2.3570   -1.2554 H   0  0  0  0  0  0  0  0  0  0  0  0
    1.0411   -1.4434   -1.8914 H   0  0  0  0  0  0  0  0  0  0  0  0
    1.8556   -2.8200   -0.0740 H   0  0  0  0  0  0  0  0  0  0  0  0
    0.5197   -2.3726    0.9944 H   0  0  0  0  0  0  0  0  0  0  0  0
    3.8616   -1.8757    0.7348 H   0  0  0  0  0  0  0  0  0  0  0  0
    3.9804   -0.1576    1.1334 H   0  0  0  0  0  0  0  0  0  0  0  0
    3.4687   -1.3690   -1.7042 H   0  0  0  0  0  0  0  0  0  0  0  0
    4.4374    1.3563   -0.6832 H   0  0  0  0  0  0  0  0  0  0  0  0
    4.3764    0.7326   -2.4445 H   0  0  0  0  0  0  0  0  0  0  0  0
    2.1475    1.2477    1.0904 H   0  0  0  0  0  0  0  0  0  0  0  0
    0.8215    0.0496    2.9368 H   0  0  0  0  0  0  0  0  0  0  0  0
    0.1774    1.5985    2.3265 H   0  0  0  0  0  0  0  0  0  0  0  0
   -2.8993   -1.4250   -0.7548 H   0  0  0  0  0  0  0  0  0  0  0  0
   -4.9912   -2.2427    0.1806 H   0  0  0  0  0  0  0  0  0  0  0  0
   -3.7507   -1.1234    3.4230 H   0  0  0  0  0  0  0  0  0  0  0  0
   -1.5681   -0.0659    3.8183 H   0  0  0  0  0  0  0  0  0  0  0  0
  1  2  1  0
  2  3  1  0
  3  4  1  0
  4  5  1  0
  6  5  1  6
  6  7  1  0
  7  8  1  0
  8  9  1  0
  9 10  1  0
 10 11  1  0
 11 12  2  3
  9 13  1  0
 13 14  1  0
 14 15  1  0
 15 16  2  0
 16 17  1  0
 17 18  2  0
 18 19  1  0
 18 20  1  0
 20 21  2  0
  6  1  1  0
 16  6  1  0
 13  1  1  0
 21 15  1  0
  1 22  1  6
  2 23  1  0
  2 24  1  0
  3 25  1  0
  3 26  1  0
  4 27  1  0
  4 28  1  0
  5 29  1  0
  5 30  1  0
  7 31  1  0
  7 32  1  0
  8 33  1  0
  8 34  1  0
 10 35  1  0
 10 36  1  0
 11 37  1  0
 12 38  1  0
 12 39  1  0
 13 40  1  1
 14 41  1  0
 14 42  1  0
 17 43  1  0
 19 44  1  0
 20 45  1  0
 21 46  1  0
M  END
$$$$
