
     RDKit          3D

 65 69  0  0  0  0  0  0  0  0999 V2000
    0.2622   -0.6368   -0.2684 C   0  0  2  0  0  0  0  0  0  0  0  0
    1.4281   -1.3854   -0.8963 C   0  0  0  0  0  0  0  0  0  0  0  0
    2.5039   -1.4003    0.2121 C   0  0  1  0  0  0  0  0  0  0  0  0
    3.5089   -0.4800   -0.0877 O   0  0  0  0  0  0  0  0  0  0  0  0
    3.3860    0.5597    0.8562 C   0  0  0  0  0  0  0  0  0  0  0  0
    3.3741    1.9139    0.1405 C   0  0  0  0  0  0  0  0  0  0  0  0
    4.6944    2.1801   -0.5940 C   0  0  0  0  0  0  0  0  0  0  0  0
    4.6751    3.5412   -1.2832 C   0  0  0  0  0  0  0  0  0  0  0  0
    2.2037    0.4262    1.6104 O   0  0  0  0  0  0  0  0  0  0  0  0
    1.8324   -0.9181    1.5055 C   0  0  2  0  0  0  0  0  0  0  0  0
    2.2604   -1.6165    2.7996 C   0  0  0  0  0  0  0  0  0  0  0  0
    1.8166   -1.1961    3.8582 O   0  0  0  0  0  0  0  0  0  0  0  0
    3.2264   -2.7702    2.8453 C   0  0  0  0  0  0  0  0  0  0  0  0
    4.4904   -2.3451    2.4192 O   0  0  0  0  0  0  0  0  0  0  0  0
    0.3044   -1.0445    1.2090 C   0  0  2  0  0  0  0  0  0  0  0  0
   -0.1431   -2.5261    1.4530 C   0  0  0  0  0  0  0  0  0  0  0  0
   -0.6091   -0.0672    1.9940 C   0  0  0  0  0  0  0  0  0  0  0  0
   -2.0619   -0.0306    1.4394 C   0  0  2  0  0  0  0  0  0  0  0  0
   -2.7502   -1.1947    1.8107 O   0  0  0  0  0  0  0  0  0  0  0  0
   -2.1180    0.1931   -0.1156 C   0  0  1  0  0  0  0  0  0  0  0  0
   -1.1415   -0.7542   -0.9031 C   0  0  1  0  0  0  0  0  0  0  0  0
   -1.0822   -0.3562   -2.3942 C   0  0  0  0  0  0  0  0  0  0  0  0
   -2.4675   -0.3711   -3.0353 C   0  0  0  0  0  0  0  0  0  0  0  0
   -3.3974    0.5198   -2.2520 C   0  0  0  0  0  0  0  0  0  0  0  0
   -4.0473    1.5117   -2.8820 C   0  0  0  0  0  0  0  0  0  0  0  0
   -4.9053    2.4357   -2.1422 C   0  0  0  0  0  0  0  0  0  0  0  0
   -5.5253    3.3487   -2.7483 O   0  0  0  0  0  0  0  0  0  0  0  0
   -5.0249    2.3031   -0.6931 C   0  0  0  0  0  0  0  0  0  0  0  0
   -4.3942    1.3216   -0.0477 C   0  0  0  0  0  0  0  0  0  0  0  0
   -3.5652    0.2431   -0.7484 C   0  0  2  0  0  0  0  0  0  0  0  0
   -4.3476   -1.0845   -0.6017 C   0  0  0  0  0  0  0  0  0  0  0  0
    0.5351    0.4444   -0.3412 H   0  0  0  0  0  0  0  0  0  0  0  0
    1.1253   -2.4221   -1.1609 H   0  0  0  0  0  0  0  0  0  0  0  0
    1.7898   -0.8718   -1.8143 H   0  0  0  0  0  0  0  0  0  0  0  0
    2.9398   -2.4169    0.2708 H   0  0  0  0  0  0  0  0  0  0  0  0
    4.2549    0.5214    1.5505 H   0  0  0  0  0  0  0  0  0  0  0  0
    2.5320    1.9369   -0.5856 H   0  0  0  0  0  0  0  0  0  0  0  0
    3.2058    2.7153    0.8931 H   0  0  0  0  0  0  0  0  0  0  0  0
    4.8654    1.3942   -1.3613 H   0  0  0  0  0  0  0  0  0  0  0  0
    5.5380    2.1555    0.1298 H   0  0  0  0  0  0  0  0  0  0  0  0
    5.6402    3.7066   -1.8068 H   0  0  0  0  0  0  0  0  0  0  0  0
    3.8538    3.5836   -2.0301 H   0  0  0  0  0  0  0  0  0  0  0  0
    4.5335    4.3506   -0.5355 H   0  0  0  0  0  0  0  0  0  0  0  0
    3.3015   -3.1570    3.8866 H   0  0  0  0  0  0  0  0  0  0  0  0
    2.8540   -3.5998    2.2058 H   0  0  0  0  0  0  0  0  0  0  0  0
    5.0691   -3.1512    2.4275 H   0  0  0  0  0  0  0  0  0  0  0  0
    0.5774   -3.2492    1.0177 H   0  0  0  0  0  0  0  0  0  0  0  0
   -0.2049   -2.7340    2.5422 H   0  0  0  0  0  0  0  0  0  0  0  0
   -1.1299   -2.7727    1.0266 H   0  0  0  0  0  0  0  0  0  0  0  0
   -0.1997    0.9651    1.9364 H   0  0  0  0  0  0  0  0  0  0  0  0
   -0.6263   -0.3411    3.0708 H   0  0  0  0  0  0  0  0  0  0  0  0
   -2.5502    0.8433    1.9268 H   0  0  0  0  0  0  0  0  0  0  0  0
   -2.9477   -1.1203    2.7809 H   0  0  0  0  0  0  0  0  0  0  0  0
   -1.7120    1.2231   -0.2576 H   0  0  0  0  0  0  0  0  0  0  0  0
   -1.4897   -1.8032   -0.8598 H   0  0  0  0  0  0  0  0  0  0  0  0
   -0.4358   -1.0701   -2.9489 H   0  0  0  0  0  0  0  0  0  0  0  0
   -0.6414    0.6600   -2.5034 H   0  0  0  0  0  0  0  0  0  0  0  0
   -2.3721   -0.0414   -4.0934 H   0  0  0  0  0  0  0  0  0  0  0  0
   -2.8661   -1.4077   -3.0492 H   0  0  0  0  0  0  0  0  0  0  0  0
   -3.9237    1.6635   -3.9479 H   0  0  0  0  0  0  0  0  0  0  0  0
   -5.6366    3.0046   -0.1392 H   0  0  0  0  0  0  0  0  0  0  0  0
   -4.5614    1.2439    1.0188 H   0  0  0  0  0  0  0  0  0  0  0  0
   -4.7260   -1.2315    0.4307 H   0  0  0  0  0  0  0  0  0  0  0  0
   -5.2423   -1.0740   -1.2621 H   0  0  0  0  0  0  0  0  0  0  0  0
   -3.7358   -1.9655   -0.8779 H   0  0  0  0  0  0  0  0  0  0  0  0
  1  2  1  0
  2  3  1  0
  3  4  1  0
  4  5  1  0
  5  6  1  0
  6  7  1  0
  7  8  1  0
  5  9  1  0
  9 10  1  0
 10 11  1  1
 11 12  2  0
 11 13  1  0
 13 14  1  0
 10 15  1  0
 15 16  1  6
 15 17  1  0
 17 18  1  0
 18 19  1  0
 18 20  1  0
 20 21  1  0
 21 22  1  0
 22 23  1  0
 23 24  1  0
 24 25  2  0
 25 26  1  0
 26 27  2  0
 26 28  1  0
 28 29  2  0
 29 30  1  0
 30 31  1  6
 15  1  1  0
 30 20  1  0
 21  1  1  0
 30 24  1  0
 10  3  1  0
  1 32  1  1
  2 33  1  0
  2 34  1  0
  3 35  1  1
  5 36  1  0
  6 37  1  0
  6 38  1  0
  7 39  1  0
  7 40  1  0
  8 41  1  0
  8 42  1  0
  8 43  1  0
 13 44  1  0
 13 45  1  0
 14 46  1  0
 16 47  1  0
 16 48  1  0
 16 49  1  0
 17 50  1  0
 17 51  1  0
 18 52  1  1
 19 53  1  0
 20 54  1  1
 21 55  1  6
 22 56  1  0
 22 57  1  0
 23 58  1  0
 23 59  1  0
 25 60  1  0
 28 61  1  0
 29 62  1  0
 31 63  1  0
 31 64  1  0
 31 65  1  0
M  END
$$$$
