
     RDKit          3D

 54 56  0  0  0  0  0  0  0  0999 V2000
    1.0376   -0.6828    1.4243 C   0  0  0  0  0  0  0  0  0  0  0  0
    2.2586   -0.6147    0.5603 C   0  0  0  0  0  0  0  0  0  0  0  0
    2.3544   -1.1391   -0.7366 C   0  0  0  0  0  0  0  0  0  0  0  0
    3.9296   -0.8902   -1.2725 S   0  0  0  0  0  0  0  0  0  0  0  0
    4.4173   -0.0984    0.1324 C   0  0  0  0  0  0  0  0  0  0  0  0
    3.4002   -0.0336    1.0218 N   0  0  0  0  0  0  0  0  0  0  0  0
    5.7673    0.4519    0.3936 C   0  0  0  0  0  0  0  0  0  0  0  0
    6.0455    1.0886    1.6152 C   0  0  0  0  0  0  0  0  0  0  0  0
    7.3163    1.6113    1.8713 C   0  0  0  0  0  0  0  0  0  0  0  0
    8.3416    1.4921    0.9189 C   0  0  0  0  0  0  0  0  0  0  0  0
    8.0573    0.8806   -0.3132 C   0  0  0  0  0  0  0  0  0  0  0  0
    6.7865    0.3576   -0.5700 C   0  0  0  0  0  0  0  0  0  0  0  0
    9.6977    2.0999    1.1755 C   0  0  0  0  0  0  0  0  0  0  0  0
    9.6991    3.4108    0.7372 F   0  0  0  0  0  0  0  0  0  0  0  0
   10.6831    1.3982    0.5027 F   0  0  0  0  0  0  0  0  0  0  0  0
    9.9963    2.0759    2.5269 F   0  0  0  0  0  0  0  0  0  0  0  0
    1.3204   -1.8376   -1.5223 C   0  0  0  0  0  0  0  0  0  0  0  0
    1.6742   -2.7213   -2.3489 O   0  0  0  0  0  0  0  0  0  0  0  0
   -0.0661   -1.4986   -1.3920 N   0  0  0  0  0  0  0  0  0  0  0  0
   -1.1131   -2.3421   -1.9654 C   0  0  0  0  0  0  0  0  0  0  0  0
   -2.4730   -1.8301   -1.5756 C   0  0  0  0  0  0  0  0  0  0  0  0
   -3.1705   -0.9518   -2.4201 C   0  0  0  0  0  0  0  0  0  0  0  0
   -4.4131   -0.4414   -2.0330 C   0  0  0  0  0  0  0  0  0  0  0  0
   -4.9592   -0.7843   -0.7901 C   0  0  0  0  0  0  0  0  0  0  0  0
   -6.2065   -0.2783   -0.4071 O   0  0  0  0  0  0  0  0  0  0  0  0
   -6.3918    0.9444    0.3225 C   0  0  0  0  0  0  0  0  0  0  0  0
   -5.6882    0.8587    1.6891 C   0  0  0  0  0  0  0  0  0  0  0  0
   -5.8405    2.1329   -0.4858 C   0  0  0  0  0  0  0  0  0  0  0  0
   -7.8725    1.1419    0.5420 C   0  0  0  0  0  0  0  0  0  0  0  0
   -8.7831    0.2057    0.0586 O   0  0  0  0  0  0  0  0  0  0  0  0
   -8.2950    2.1547    1.1641 O   0  0  0  0  0  0  0  0  0  0  0  0
   -4.2674   -1.6616    0.0536 C   0  0  0  0  0  0  0  0  0  0  0  0
   -3.0249   -2.1736   -0.3311 C   0  0  0  0  0  0  0  0  0  0  0  0
    0.5033   -1.6440    1.2726 H   0  0  0  0  0  0  0  0  0  0  0  0
    0.3644    0.1675    1.1906 H   0  0  0  0  0  0  0  0  0  0  0  0
    1.3280   -0.6172    2.4941 H   0  0  0  0  0  0  0  0  0  0  0  0
    5.2790    1.1887    2.3735 H   0  0  0  0  0  0  0  0  0  0  0  0
    7.4965    2.1110    2.8149 H   0  0  0  0  0  0  0  0  0  0  0  0
    8.8180    0.8082   -1.0804 H   0  0  0  0  0  0  0  0  0  0  0  0
    6.6055   -0.1144   -1.5268 H   0  0  0  0  0  0  0  0  0  0  0  0
   -0.3262   -0.5994   -0.9286 H   0  0  0  0  0  0  0  0  0  0  0  0
   -0.9911   -3.3840   -1.5964 H   0  0  0  0  0  0  0  0  0  0  0  0
   -1.0086   -2.3622   -3.0721 H   0  0  0  0  0  0  0  0  0  0  0  0
   -2.7528   -0.6622   -3.3763 H   0  0  0  0  0  0  0  0  0  0  0  0
   -4.9487    0.2261   -2.6957 H   0  0  0  0  0  0  0  0  0  0  0  0
   -6.0614   -0.0198    2.2580 H   0  0  0  0  0  0  0  0  0  0  0  0
   -4.5900    0.7545    1.5597 H   0  0  0  0  0  0  0  0  0  0  0  0
   -5.8744    1.7757    2.2889 H   0  0  0  0  0  0  0  0  0  0  0  0
   -6.0316    3.0930    0.0408 H   0  0  0  0  0  0  0  0  0  0  0  0
   -4.7434    2.0359   -0.6283 H   0  0  0  0  0  0  0  0  0  0  0  0
   -6.3239    2.1738   -1.4856 H   0  0  0  0  0  0  0  0  0  0  0  0
   -9.7788    0.3278    0.2000 H   0  0  0  0  0  0  0  0  0  0  0  0
   -4.6896   -1.9411    1.0103 H   0  0  0  0  0  0  0  0  0  0  0  0
   -2.4921   -2.8356    0.3403 H   0  0  0  0  0  0  0  0  0  0  0  0
  1  2  1  0
  2  3  2  0
  3  4  1  0
  4  5  1  0
  5  6  2  0
  5  7  1  0
  7  8  2  0
  8  9  1  0
  9 10  2  0
 10 11  1  0
 11 12  2  0
 10 13  1  0
 13 14  1  0
 13 15  1  0
 13 16  1  0
  3 17  1  0
 17 18  2  0
 17 19  1  0
 19 20  1  0
 20 21  1  0
 21 22  2  0
 22 23  1  0
 23 24  2  0
 24 25  1  0
 25 26  1  0
 26 27  1  0
 26 28  1  0
 26 29  1  0
 29 30  1  0
 29 31  2  0
 24 32  1  0
 32 33  2  0
  6  2  1  0
 12  7  1  0
 33 21  1  0
  1 34  1  0
  1 35  1  0
  1 36  1  0
  8 37  1  0
  9 38  1  0
 11 39  1  0
 12 40  1  0
 19 41  1  0
 20 42  1  0
 20 43  1  0
 22 44  1  0
 23 45  1  0
 27 46  1  0
 27 47  1  0
 27 48  1  0
 28 49  1  0
 28 50  1  0
 28 51  1  0
 30 52  1  0
 32 53  1  0
 33 54  1  0
M  END
$$$$
