
     RDKit          3D

 30 32  0  0  0  0  0  0  0  0999 V2000
    5.0534    0.6516    0.0104 C   0  0  0  0  0  0  0  0  0  0  0  0
    4.3206   -0.5477   -0.2177 O   0  0  0  0  0  0  0  0  0  0  0  0
    2.9217   -0.6390   -0.1762 C   0  0  0  0  0  0  0  0  0  0  0  0
    2.1003    0.4831    0.0996 C   0  0  0  0  0  0  0  0  0  0  0  0
    0.7195    0.2960    0.1252 C   0  0  0  0  0  0  0  0  0  0  0  0
    0.1567   -0.9373   -0.1116 C   0  0  0  0  0  0  0  0  0  0  0  0
    0.9297   -2.0574   -0.4003 C   0  0  0  0  0  0  0  0  0  0  0  0
    2.3267   -1.8991   -0.4244 C   0  0  0  0  0  0  0  0  0  0  0  0
   -1.2070   -0.7636   -0.0409 C   0  0  0  0  0  0  0  0  0  0  0  0
   -1.4009    0.5742    0.2097 C   0  0  0  0  0  0  0  0  0  0  0  0
   -0.2271    1.2373    0.3193 N   0  0  0  0  0  0  0  0  0  0  0  0
   -2.7558    1.1392    0.2148 C   0  0  0  0  0  0  0  0  0  0  0  0
   -2.9772    2.6170    0.1605 C   0  0  0  0  0  0  0  0  0  0  0  0
   -3.7702    0.3209    0.1381 N   0  0  0  0  0  0  0  0  0  0  0  0
   -3.6437   -1.1478    0.2323 C   0  0  0  0  0  0  0  0  0  0  0  0
   -2.3343   -1.6792   -0.3991 C   0  0  0  0  0  0  0  0  0  0  0  0
    4.8511    1.0339    1.0332 H   0  0  0  0  0  0  0  0  0  0  0  0
    4.7774    1.4171   -0.7453 H   0  0  0  0  0  0  0  0  0  0  0  0
    6.1378    0.4369   -0.0809 H   0  0  0  0  0  0  0  0  0  0  0  0
    2.5141    1.4658    0.2809 H   0  0  0  0  0  0  0  0  0  0  0  0
    0.4741   -3.0189   -0.5985 H   0  0  0  0  0  0  0  0  0  0  0  0
    2.9532   -2.7549   -0.6407 H   0  0  0  0  0  0  0  0  0  0  0  0
   -0.0822    2.2593    0.4774 H   0  0  0  0  0  0  0  0  0  0  0  0
   -4.0560    2.8566    0.2741 H   0  0  0  0  0  0  0  0  0  0  0  0
   -2.4184    3.1120    0.9820 H   0  0  0  0  0  0  0  0  0  0  0  0
   -2.6215    3.0104   -0.8146 H   0  0  0  0  0  0  0  0  0  0  0  0
   -3.6599   -1.4325    1.3066 H   0  0  0  0  0  0  0  0  0  0  0  0
   -4.5185   -1.6240   -0.2580 H   0  0  0  0  0  0  0  0  0  0  0  0
   -2.4384   -1.7028   -1.5048 H   0  0  0  0  0  0  0  0  0  0  0  0
   -2.1255   -2.7071   -0.0334 H   0  0  0  0  0  0  0  0  0  0  0  0
  1  2  1  0
  2  3  1  0
  3  4  2  0
  4  5  1  0
  5  6  2  0
  6  7  1  0
  7  8  2  0
  6  9  1  0
  9 10  2  0
 10 11  1  0
 10 12  1  0
 12 13  1  0
 12 14  2  0
 14 15  1  0
 15 16  1  0
  8  3  1  0
 16  9  1  0
 11  5  1  0
  1 17  1  0
  1 18  1  0
  1 19  1  0
  4 20  1  0
  7 21  1  0
  8 22  1  0
 11 23  1  0
 13 24  1  0
 13 25  1  0
 13 26  1  0
 15 27  1  0
 15 28  1  0
 16 29  1  0
 16 30  1  0
M  END
$$$$
