
     RDKit          3D

 29 31  0  0  0  0  0  0  0  0999 V2000
    5.0521   -1.4986   -0.0440 C   0  0  0  0  0  0  0  0  0  0  0  0
    3.6338   -1.6147    0.0015 O   0  0  0  0  0  0  0  0  0  0  0  0
    2.7472   -0.5338   -0.1120 C   0  0  0  0  0  0  0  0  0  0  0  0
    3.1982    0.8016   -0.2864 C   0  0  0  0  0  0  0  0  0  0  0  0
    2.2793    1.8578   -0.3977 C   0  0  0  0  0  0  0  0  0  0  0  0
    0.9201    1.5630   -0.3340 C   0  0  0  0  0  0  0  0  0  0  0  0
   -0.1491    2.4967   -0.4204 N   0  0  0  0  0  0  0  0  0  0  0  0
   -1.3294    1.7125   -0.2735 C   0  0  0  0  0  0  0  0  0  0  0  0
   -2.4788    2.2170   -0.1798 O   0  0  0  0  0  0  0  0  0  0  0  0
   -0.9949    0.2845   -0.1335 C   0  0  0  0  0  0  0  0  0  0  0  0
   -1.7997   -0.7712    0.0586 C   0  0  0  0  0  0  0  0  0  0  0  0
   -3.2690   -0.7141   -0.0043 C   0  0  0  0  0  0  0  0  0  0  0  0
   -4.1313   -1.4519    0.7736 C   0  0  0  0  0  0  0  0  0  0  0  0
   -5.3958   -1.2366    0.3592 N   0  0  0  0  0  0  0  0  0  0  0  0
   -5.2665   -0.3826   -0.6787 C   0  0  0  0  0  0  0  0  0  0  0  0
   -3.9851   -0.0575   -0.9319 N   0  0  0  0  0  0  0  0  0  0  0  0
    0.4712    0.2684   -0.1600 C   0  0  0  0  0  0  0  0  0  0  0  0
    1.3663   -0.7981   -0.0491 C   0  0  0  0  0  0  0  0  0  0  0  0
    5.5021   -2.5060    0.0700 H   0  0  0  0  0  0  0  0  0  0  0  0
    5.4093   -0.8536    0.7864 H   0  0  0  0  0  0  0  0  0  0  0  0
    5.3694   -1.0758   -1.0206 H   0  0  0  0  0  0  0  0  0  0  0  0
    4.2539    1.0300   -0.3368 H   0  0  0  0  0  0  0  0  0  0  0  0
    2.6200    2.8765   -0.5300 H   0  0  0  0  0  0  0  0  0  0  0  0
   -0.0822    3.5357   -0.4991 H   0  0  0  0  0  0  0  0  0  0  0  0
   -1.3565   -1.7315    0.2875 H   0  0  0  0  0  0  0  0  0  0  0  0
   -3.8593   -2.1144    1.5849 H   0  0  0  0  0  0  0  0  0  0  0  0
   -6.1030   -0.0198   -1.2612 H   0  0  0  0  0  0  0  0  0  0  0  0
   -3.6327    0.5280   -1.7212 H   0  0  0  0  0  0  0  0  0  0  0  0
    1.0106   -1.8114    0.0817 H   0  0  0  0  0  0  0  0  0  0  0  0
  1  2  1  0
  2  3  1  0
  3  4  2  0
  4  5  1  0
  5  6  2  0
  6  7  1  0
  7  8  1  0
  8  9  2  0
  8 10  1  0
 10 11  2  0
 11 12  1  0
 12 13  2  0
 13 14  1  0
 14 15  2  0
 15 16  1  0
 10 17  1  0
 17 18  2  0
 18  3  1  0
 17  6  1  0
 16 12  1  0
  1 19  1  0
  1 20  1  0
  1 21  1  0
  4 22  1  0
  5 23  1  0
  7 24  1  0
 11 25  1  0
 13 26  1  0
 15 27  1  0
 16 28  1  0
 18 29  1  0
M  END
$$$$
