
     RDKit          3D

 47 47  0  0  0  0  0  0  0  0999 V2000
   -1.0262   -0.3033    0.5391 C   0  0  0  0  0  0  0  0  0  0  0  0
   -0.1280   -0.1299    1.4596 N   0  0  0  0  0  0  0  0  0  0  0  0
    0.5980   -1.2337    2.0828 C   0  0  0  0  0  0  0  0  0  0  0  0
    1.6203   -1.8433    1.1140 C   0  0  0  0  0  0  0  0  0  0  0  0
    2.6684   -0.8136    0.6688 C   0  0  0  0  0  0  0  0  0  0  0  0
    3.6904   -1.4452   -0.2913 C   0  0  0  0  0  0  0  0  0  0  0  0
    4.7685   -0.4533   -0.7761 C   0  0  2  0  0  0  0  0  0  0  0  0
    5.5023    0.1161    0.3561 N   0  0  0  0  0  0  0  0  0  0  0  0
    4.1606    0.6410   -1.6120 C   0  0  0  0  0  0  0  0  0  0  0  0
    3.7576    1.8362   -1.0215 O   0  0  0  0  0  0  0  0  0  0  0  0
    3.9765    0.4591   -2.8454 O   0  0  0  0  0  0  0  0  0  0  0  0
   -1.7271    0.8528   -0.0790 C   0  0  0  0  0  0  0  0  0  0  0  0
   -3.0227    0.6923   -0.6335 C   0  0  0  0  0  0  0  0  0  0  0  0
   -3.7506   -0.6308   -0.6051 C   0  0  0  0  0  0  0  0  0  0  0  0
   -3.9980   -0.9899    0.7341 O   0  0  0  0  0  0  0  0  0  0  0  0
   -4.5756   -2.5934    0.7674 P   0  0  0  0  0  5  0  0  0  0  0  0
   -5.9497   -2.7457   -0.2114 O   0  0  0  0  0  0  0  0  0  0  0  0
   -3.3656   -3.6500    0.2309 O   0  0  0  0  0  0  0  0  0  0  0  0
   -4.9450   -2.9486    2.1893 O   0  0  0  0  0  0  0  0  0  0  0  0
   -3.6607    1.8064   -1.1966 C   0  0  0  0  0  0  0  0  0  0  0  0
   -3.0454    3.0132   -1.2232 N   0  0  0  0  0  0  0  0  0  0  0  0
   -1.8004    3.2057   -0.7175 C   0  0  0  0  0  0  0  0  0  0  0  0
   -1.1972    4.5754   -0.8033 C   0  0  0  0  0  0  0  0  0  0  0  0
   -1.1059    2.1233   -0.1382 C   0  0  0  0  0  0  0  0  0  0  0  0
    0.1919    2.2868    0.3581 O   0  0  0  0  0  0  0  0  0  0  0  0
   -1.2848   -1.3111    0.2401 H   0  0  0  0  0  0  0  0  0  0  0  0
   -0.1180   -2.0167    2.4166 H   0  0  0  0  0  0  0  0  0  0  0  0
    1.1255   -0.8523    2.9829 H   0  0  0  0  0  0  0  0  0  0  0  0
    2.1294   -2.6891    1.6254 H   0  0  0  0  0  0  0  0  0  0  0  0
    1.0910   -2.2504    0.2250 H   0  0  0  0  0  0  0  0  0  0  0  0
    3.1926   -0.4163    1.5651 H   0  0  0  0  0  0  0  0  0  0  0  0
    2.1554    0.0279    0.1570 H   0  0  0  0  0  0  0  0  0  0  0  0
    4.1932   -2.2949    0.2209 H   0  0  0  0  0  0  0  0  0  0  0  0
    3.1582   -1.8610   -1.1755 H   0  0  0  0  0  0  0  0  0  0  0  0
    5.4853   -1.0178   -1.4157 H   0  0  0  0  0  0  0  0  0  0  0  0
    6.2752    0.7131   -0.0199 H   0  0  0  0  0  0  0  0  0  0  0  0
    5.9675   -0.6652    0.8735 H   0  0  0  0  0  0  0  0  0  0  0  0
    3.3257    2.5685   -1.5722 H   0  0  0  0  0  0  0  0  0  0  0  0
   -3.1223   -1.3825   -1.1345 H   0  0  0  0  0  0  0  0  0  0  0  0
   -4.7153   -0.5513   -1.1549 H   0  0  0  0  0  0  0  0  0  0  0  0
   -5.5991   -2.9502   -1.1148 H   0  0  0  0  0  0  0  0  0  0  0  0
   -3.7930   -4.5434    0.2276 H   0  0  0  0  0  0  0  0  0  0  0  0
   -4.6548    1.7199   -1.6160 H   0  0  0  0  0  0  0  0  0  0  0  0
   -1.9097    5.2871   -1.2722 H   0  0  0  0  0  0  0  0  0  0  0  0
   -0.9537    4.9468    0.2143 H   0  0  0  0  0  0  0  0  0  0  0  0
   -0.2763    4.5449   -1.4228 H   0  0  0  0  0  0  0  0  0  0  0  0
    0.6919    3.1660    0.3304 H   0  0  0  0  0  0  0  0  0  0  0  0
  1  2  2  0
  2  3  1  0
  3  4  1  0
  4  5  1  0
  5  6  1  0
  6  7  1  0
  7  8  1  0
  7  9  1  0
  9 10  1  0
  9 11  2  0
  1 12  1  0
 12 13  2  0
 13 14  1  0
 14 15  1  0
 15 16  1  0
 16 17  1  0
 16 18  1  0
 16 19  2  0
 13 20  1  0
 20 21  2  0
 21 22  1  0
 22 23  1  0
 22 24  2  0
 24 25  1  0
 24 12  1  0
  1 26  1  0
  3 27  1  0
  3 28  1  0
  4 29  1  0
  4 30  1  0
  5 31  1  0
  5 32  1  0
  6 33  1  0
  6 34  1  0
  7 35  1  6
  8 36  1  0
  8 37  1  0
 10 38  1  0
 14 39  1  0
 14 40  1  0
 17 41  1  0
 18 42  1  0
 20 43  1  0
 23 44  1  0
 23 45  1  0
 23 46  1  0
 25 47  1  0
M  END
$$$$
