
     RDKit          3D

 93 96  0  0  0  0  0  0  0  0999 V2000
   -6.5633   -2.1012    1.7965 C   0  0  1  0  0  0  0  0  0  0  0  0
   -7.0240   -3.4257    1.8821 O   0  0  0  0  0  0  0  0  0  0  0  0
   -5.5372   -1.7843    2.8962 C   0  0  0  0  0  0  0  0  0  0  0  0
   -4.4725   -0.8791    2.2523 C   0  0  0  0  0  0  0  0  0  0  0  0
   -5.0195   -0.5398    0.8611 C   0  0  1  0  0  0  0  0  0  0  0  0
   -4.1101   -0.0494   -0.3241 C   0  0  2  0  0  0  0  0  0  0  0  0
   -3.0934    1.1682   -0.1087 C   0  0  2  0  0  0  0  0  0  0  0  0
   -2.6784    1.4856    1.3462 C   0  0  0  0  0  0  0  0  0  0  0  0
   -1.4267    2.3965    1.4815 C   0  0  0  0  0  0  0  0  0  0  0  0
   -0.1781    1.6576    2.0015 C   0  0  0  0  0  0  0  0  0  0  0  0
    0.3946    0.6132    1.0223 C   0  0  0  0  0  0  0  0  0  0  0  0
    0.9206    1.1865   -0.3102 C   0  0  0  0  0  0  0  0  0  0  0  0
    2.0264    2.2511   -0.1733 C   0  0  0  0  0  0  0  0  0  0  0  0
    3.2712    1.8027    0.6182 C   0  0  0  0  0  0  0  0  0  0  0  0
    3.9689    0.5435    0.0741 C   0  0  0  0  0  0  0  0  0  0  0  0
    4.5249    0.7357   -1.3467 C   0  0  0  0  0  0  0  0  0  0  0  0
    5.3197   -0.4847   -1.8318 C   0  0  0  0  0  0  0  0  0  0  0  0
    6.6187   -0.6369   -1.0796 C   0  0  0  0  0  0  0  0  0  0  0  0
    7.5694    0.1358   -1.3813 O   0  0  0  0  0  0  0  0  0  0  0  0
    6.7857   -1.5907   -0.0041 N   0  0  0  0  0  0  0  0  0  0  0  0
    5.8413   -2.6996    0.1738 C   0  0  0  0  0  0  0  0  0  0  0  0
    7.9361   -1.4647    0.9038 C   0  0  0  0  0  0  0  0  0  0  0  0
    7.7042   -0.3136    1.8925 C   0  0  0  0  0  0  0  0  0  0  0  0
    8.8173   -0.2026    2.9450 C   0  0  0  0  0  0  0  0  0  0  0  0
   10.1340    0.3060    2.3588 C   0  0  0  0  0  0  0  0  0  0  0  0
   -3.5351    2.4450   -0.8746 C   0  0  0  0  0  0  0  0  0  0  0  0
   -3.6749    2.0950   -2.3335 C   0  0  0  0  0  0  0  0  0  0  0  0
   -3.0430    2.8462   -3.3355 C   0  0  0  0  0  0  0  0  0  0  0  0
   -3.1277    2.4444   -4.6718 C   0  0  0  0  0  0  0  0  0  0  0  0
   -2.4950    3.1985   -5.6574 O   0  0  0  0  0  0  0  0  0  0  0  0
   -3.8423    1.2869   -5.0074 C   0  0  0  0  0  0  0  0  0  0  0  0
   -4.4766    0.5358   -4.0133 C   0  0  0  0  0  0  0  0  0  0  0  0
   -4.3981    0.9381   -2.6658 C   0  0  0  0  0  0  0  0  0  0  0  0
   -5.1024    0.2391   -1.5183 C   0  0  1  0  0  0  0  0  0  0  0  0
   -5.9547   -0.9885   -1.9153 C   0  0  0  0  0  0  0  0  0  0  0  0
   -6.7442   -1.5320   -0.7079 C   0  0  0  0  0  0  0  0  0  0  0  0
   -5.8076   -1.8243    0.4842 C   0  0  2  0  0  0  0  0  0  0  0  0
   -4.8959   -3.0525    0.1453 C   0  0  0  0  0  0  0  0  0  0  0  0
   -7.4250   -1.3973    1.8899 H   0  0  0  0  0  0  0  0  0  0  0  0
   -7.6058   -3.4697    2.6852 H   0  0  0  0  0  0  0  0  0  0  0  0
   -5.0611   -2.7147    3.2773 H   0  0  0  0  0  0  0  0  0  0  0  0
   -6.0362   -1.2687    3.7459 H   0  0  0  0  0  0  0  0  0  0  0  0
   -4.3571    0.0266    2.8833 H   0  0  0  0  0  0  0  0  0  0  0  0
   -3.5064   -1.4235    2.1750 H   0  0  0  0  0  0  0  0  0  0  0  0
   -5.7513    0.2848    1.0411 H   0  0  0  0  0  0  0  0  0  0  0  0
   -3.4616   -0.8971   -0.6217 H   0  0  0  0  0  0  0  0  0  0  0  0
   -2.1502    0.8475   -0.6055 H   0  0  0  0  0  0  0  0  0  0  0  0
   -2.4356    0.5397    1.8567 H   0  0  0  0  0  0  0  0  0  0  0  0
   -3.5372    1.9625    1.8665 H   0  0  0  0  0  0  0  0  0  0  0  0
   -1.1628    2.9195    0.5447 H   0  0  0  0  0  0  0  0  0  0  0  0
   -1.6652    3.1963    2.2160 H   0  0  0  0  0  0  0  0  0  0  0  0
   -0.4329    1.1462    2.9554 H   0  0  0  0  0  0  0  0  0  0  0  0
    0.6046    2.4023    2.2558 H   0  0  0  0  0  0  0  0  0  0  0  0
   -0.3829   -0.1467    0.7967 H   0  0  0  0  0  0  0  0  0  0  0  0
    1.2141    0.0645    1.5323 H   0  0  0  0  0  0  0  0  0  0  0  0
    0.0808    1.6280   -0.8849 H   0  0  0  0  0  0  0  0  0  0  0  0
    1.2963    0.3469   -0.9322 H   0  0  0  0  0  0  0  0  0  0  0  0
    1.6049    3.1572    0.3108 H   0  0  0  0  0  0  0  0  0  0  0  0
    2.3348    2.5735   -1.1901 H   0  0  0  0  0  0  0  0  0  0  0  0
    2.9896    1.6254    1.6777 H   0  0  0  0  0  0  0  0  0  0  0  0
    4.0018    2.6407    0.6259 H   0  0  0  0  0  0  0  0  0  0  0  0
    4.8070    0.3086    0.7640 H   0  0  0  0  0  0  0  0  0  0  0  0
    3.2753   -0.3228    0.0970 H   0  0  0  0  0  0  0  0  0  0  0  0
    5.1703    1.6409   -1.3832 H   0  0  0  0  0  0  0  0  0  0  0  0
    3.6813    0.8894   -2.0523 H   0  0  0  0  0  0  0  0  0  0  0  0
    4.6894   -1.3948   -1.7742 H   0  0  0  0  0  0  0  0  0  0  0  0
    5.5580   -0.3408   -2.9080 H   0  0  0  0  0  0  0  0  0  0  0  0
    4.8328   -2.3048    0.4129 H   0  0  0  0  0  0  0  0  0  0  0  0
    6.1430   -3.3677    1.0074 H   0  0  0  0  0  0  0  0  0  0  0  0
    5.7963   -3.3078   -0.7541 H   0  0  0  0  0  0  0  0  0  0  0  0
    8.0952   -2.4063    1.4728 H   0  0  0  0  0  0  0  0  0  0  0  0
    8.8591   -1.2927    0.3107 H   0  0  0  0  0  0  0  0  0  0  0  0
    6.7433   -0.4942    2.4220 H   0  0  0  0  0  0  0  0  0  0  0  0
    7.6080    0.6486    1.3441 H   0  0  0  0  0  0  0  0  0  0  0  0
    8.4873    0.5117    3.7302 H   0  0  0  0  0  0  0  0  0  0  0  0
    8.9822   -1.1869    3.4347 H   0  0  0  0  0  0  0  0  0  0  0  0
    9.9762    1.2662    1.8232 H   0  0  0  0  0  0  0  0  0  0  0  0
   10.8619    0.4756    3.1800 H   0  0  0  0  0  0  0  0  0  0  0  0
   10.5684   -0.4397    1.6615 H   0  0  0  0  0  0  0  0  0  0  0  0
   -4.5076    2.8085   -0.4786 H   0  0  0  0  0  0  0  0  0  0  0  0
   -2.8143    3.2770   -0.7622 H   0  0  0  0  0  0  0  0  0  0  0  0
   -2.4757    3.7327   -3.0801 H   0  0  0  0  0  0  0  0  0  0  0  0
   -2.5357    2.9336   -6.6347 H   0  0  0  0  0  0  0  0  0  0  0  0
   -3.9092    0.9697   -6.0403 H   0  0  0  0  0  0  0  0  0  0  0  0
   -5.0220   -0.3489   -4.3092 H   0  0  0  0  0  0  0  0  0  0  0  0
   -5.8467    0.9867   -1.1585 H   0  0  0  0  0  0  0  0  0  0  0  0
   -5.3142   -1.7796   -2.3567 H   0  0  0  0  0  0  0  0  0  0  0  0
   -6.6943   -0.6891   -2.6897 H   0  0  0  0  0  0  0  0  0  0  0  0
   -7.2876   -2.4550   -1.0059 H   0  0  0  0  0  0  0  0  0  0  0  0
   -7.5097   -0.7791   -0.4160 H   0  0  0  0  0  0  0  0  0  0  0  0
   -4.2278   -3.3218    0.9885 H   0  0  0  0  0  0  0  0  0  0  0  0
   -5.5211   -3.9427   -0.0793 H   0  0  0  0  0  0  0  0  0  0  0  0
   -4.2571   -2.8968   -0.7426 H   0  0  0  0  0  0  0  0  0  0  0  0
  1  2  1  0
  1  3  1  0
  3  4  1  0
  4  5  1  0
  5  6  1  0
  6  7  1  0
  7  8  1  0
  8  9  1  0
  9 10  1  0
 10 11  1  0
 11 12  1  0
 12 13  1  0
 13 14  1  0
 14 15  1  0
 15 16  1  0
 16 17  1  0
 17 18  1  0
 18 19  2  0
 18 20  1  0
 20 21  1  0
 20 22  1  0
 22 23  1  0
 23 24  1  0
 24 25  1  0
  7 26  1  0
 26 27  1  0
 27 28  2  0
 28 29  1  0
 29 30  1  0
 29 31  2  0
 31 32  1  0
 32 33  2  0
 33 34  1  0
 34 35  1  0
 35 36  1  0
 36 37  1  0
 37 38  1  6
 37  1  1  0
 37  5  1  0
 34  6  1  0
 33 27  1  0
  1 39  1  1
  2 40  1  0
  3 41  1  0
  3 42  1  0
  4 43  1  0
  4 44  1  0
  5 45  1  1
  6 46  1  6
  7 47  1  6
  8 48  1  0
  8 49  1  0
  9 50  1  0
  9 51  1  0
 10 52  1  0
 10 53  1  0
 11 54  1  0
 11 55  1  0
 12 56  1  0
 12 57  1  0
 13 58  1  0
 13 59  1  0
 14 60  1  0
 14 61  1  0
 15 62  1  0
 15 63  1  0
 16 64  1  0
 16 65  1  0
 17 66  1  0
 17 67  1  0
 21 68  1  0
 21 69  1  0
 21 70  1  0
 22 71  1  0
 22 72  1  0
 23 73  1  0
 23 74  1  0
 24 75  1  0
 24 76  1  0
 25 77  1  0
 25 78  1  0
 25 79  1  0
 26 80  1  0
 26 81  1  0
 28 82  1  0
 30 83  1  0
 31 84  1  0
 32 85  1  0
 34 86  1  1
 35 87  1  0
 35 88  1  0
 36 89  1  0
 36 90  1  0
 38 91  1  0
 38 92  1  0
 38 93  1  0
M  END
$$$$
