
     RDKit          3D

 46 49  0  0  0  0  0  0  0  0999 V2000
    3.8688    4.0604    1.4171 C   0  0  0  0  0  0  0  0  0  0  0  0
    2.5733    3.4748    1.3368 O   0  0  0  0  0  0  0  0  0  0  0  0
    2.2981    2.2347    0.7407 C   0  0  0  0  0  0  0  0  0  0  0  0
    3.3005    1.4381    0.1621 C   0  0  0  0  0  0  0  0  0  0  0  0
    2.9839    0.2024   -0.4251 C   0  0  0  0  0  0  0  0  0  0  0  0
    1.6429   -0.2326   -0.4431 C   0  0  0  0  0  0  0  0  0  0  0  0
    1.3102   -1.4153   -1.0986 O   0  0  0  0  0  1  0  0  0  0  0  0
    0.6348    0.5498    0.1563 C   0  0  0  0  0  0  0  0  0  0  0  0
    0.9761    1.7839    0.7329 C   0  0  0  0  0  0  0  0  0  0  0  0
   -0.7779    0.1014    0.1755 C   0  0  0  0  0  0  0  0  0  0  0  0
   -1.8883    0.9409    0.0704 C   0  0  0  0  0  0  0  0  0  0  0  0
   -2.9793    0.1054    0.1617 C   0  0  0  0  0  0  0  0  0  0  0  0
   -4.3419    0.3900    0.1241 C   0  0  0  0  0  0  0  0  0  0  0  0
   -5.2531   -0.6833    0.2616 C   0  0  0  0  0  0  0  0  0  0  0  0
   -4.7548   -2.0043    0.4283 C   0  0  0  0  0  0  0  0  0  0  0  0
   -3.3710   -2.2534    0.4621 C   0  0  0  0  0  0  0  0  0  0  0  0
   -2.5094   -1.1691    0.3227 C   0  0  0  0  0  0  0  0  0  0  0  0
   -1.1665   -1.1884    0.3344 N   0  0  0  0  0  0  0  0  0  0  0  0
   -6.7142   -0.4248    0.2228 C   0  0  0  0  0  0  0  0  0  0  0  0
   -7.2384    0.5735   -0.6611 N   0  0  0  0  0  0  0  0  0  0  0  0
   -7.5264   -1.0897    0.9902 N   0  0  0  0  0  4  0  0  0  0  0  0
    4.0630   -0.6175   -1.0284 C   0  0  0  0  0  0  0  0  0  0  0  0
    4.9819   -0.0366   -1.9209 C   0  0  0  0  0  0  0  0  0  0  0  0
    6.0049   -0.8069   -2.4824 C   0  0  0  0  0  0  0  0  0  0  0  0
    6.1236   -2.1599   -2.1552 C   0  0  0  0  0  0  0  0  0  0  0  0
    5.2207   -2.7448   -1.2638 C   0  0  0  0  0  0  0  0  0  0  0  0
    4.1956   -1.9789   -0.7001 C   0  0  0  0  0  0  0  0  0  0  0  0
    3.7926    5.0395    1.9327 H   0  0  0  0  0  0  0  0  0  0  0  0
    4.5492    3.4040    1.9997 H   0  0  0  0  0  0  0  0  0  0  0  0
    4.2769    4.2262    0.3976 H   0  0  0  0  0  0  0  0  0  0  0  0
    4.3313    1.7667    0.1755 H   0  0  0  0  0  0  0  0  0  0  0  0
    0.2142    2.3980    1.1975 H   0  0  0  0  0  0  0  0  0  0  0  0
   -1.8970    2.0151   -0.0615 H   0  0  0  0  0  0  0  0  0  0  0  0
   -4.6811    1.4122    0.0124 H   0  0  0  0  0  0  0  0  0  0  0  0
   -5.4342   -2.8427    0.5127 H   0  0  0  0  0  0  0  0  0  0  0  0
   -2.9891   -3.2584    0.5871 H   0  0  0  0  0  0  0  0  0  0  0  0
   -0.5589   -2.0253    0.4789 H   0  0  0  0  0  0  0  0  0  0  0  0
   -6.6230    1.0603   -1.3497 H   0  0  0  0  0  0  0  0  0  0  0  0
   -8.2581    0.7987   -0.6679 H   0  0  0  0  0  0  0  0  0  0  0  0
   -7.1804   -1.7985    1.6745 H   0  0  0  0  0  0  0  0  0  0  0  0
   -8.5550   -0.9102    0.9611 H   0  0  0  0  0  0  0  0  0  0  0  0
    4.8997    1.0090   -2.1915 H   0  0  0  0  0  0  0  0  0  0  0  0
    6.7055   -0.3546   -3.1724 H   0  0  0  0  0  0  0  0  0  0  0  0
    6.9166   -2.7543   -2.5902 H   0  0  0  0  0  0  0  0  0  0  0  0
    5.3175   -3.7915   -1.0060 H   0  0  0  0  0  0  0  0  0  0  0  0
    3.5160   -2.4442    0.0031 H   0  0  0  0  0  0  0  0  0  0  0  0
  1  2  1  0
  2  3  1  0
  3  4  2  0
  4  5  1  0
  5  6  2  0
  6  7  1  0
  6  8  1  0
  8  9  2  0
  8 10  1  0
 10 11  2  0
 11 12  1  0
 12 13  2  0
 13 14  1  0
 14 15  2  0
 15 16  1  0
 16 17  2  0
 17 18  1  0
 14 19  1  0
 19 20  1  0
 19 21  2  3
  5 22  1  0
 22 23  2  0
 23 24  1  0
 24 25  2  0
 25 26  1  0
 26 27  2  0
  9  3  1  0
 18 10  1  0
 27 22  1  0
 17 12  1  0
  1 28  1  0
  1 29  1  0
  1 30  1  0
  4 31  1  0
  9 32  1  0
 11 33  1  0
 13 34  1  0
 15 35  1  0
 16 36  1  0
 18 37  1  0
 20 38  1  0
 20 39  1  0
 21 40  1  0
 21 41  1  0
 23 42  1  0
 24 43  1  0
 25 44  1  0
 26 45  1  0
 27 46  1  0
M  CHG  2   7  -1  21   1
M  END
$$$$
