
     RDKit          3D

 43 44  0  0  0  0  0  0  0  0999 V2000
   -2.8019   -0.6633   -3.2717 C   0  0  0  0  0  0  0  0  0  0  0  0
   -2.5251    0.3285   -2.1394 C   0  0  0  0  0  0  0  0  0  0  0  0
   -1.4212   -0.1319   -1.1521 C   0  0  2  0  0  0  0  0  0  0  0  0
   -1.6566    0.5653    0.1349 N   0  0  0  0  0  0  0  0  0  0  0  0
   -2.4340   -0.2365    1.0982 C   0  0  0  0  0  0  0  0  0  0  0  0
   -1.5343   -1.2184    1.8670 C   0  0  0  0  0  0  0  0  0  0  0  0
   -3.1420    0.7061    2.0723 C   0  0  0  0  0  0  0  0  0  0  0  0
    0.0138    0.1737   -1.6974 C   0  0  2  0  0  0  0  0  0  0  0  0
    0.2399   -0.4129   -2.9568 O   0  0  0  0  0  0  0  0  0  0  0  0
    1.1109   -0.2750   -0.7198 C   0  0  0  0  0  0  0  0  0  0  0  0
    1.9545    0.6211    0.0119 C   0  0  0  0  0  0  0  0  0  0  0  0
    1.8164    2.0263   -0.0543 C   0  0  0  0  0  0  0  0  0  0  0  0
    2.6659    2.8609    0.6615 C   0  0  0  0  0  0  0  0  0  0  0  0
    3.6577    2.3102    1.4604 C   0  0  0  0  0  0  0  0  0  0  0  0
    4.4308    3.0673    2.1069 O   0  0  0  0  0  0  0  0  0  0  0  0
    3.7922    0.9607    1.5520 N   0  0  0  0  0  0  0  0  0  0  0  0
    2.9748    0.0966    0.8681 C   0  0  0  0  0  0  0  0  0  0  0  0
    3.1165   -1.3093    1.0050 C   0  0  0  0  0  0  0  0  0  0  0  0
    4.0823   -1.9161    1.8151 O   0  0  0  0  0  0  0  0  0  0  0  0
    2.2592   -2.1586    0.3148 C   0  0  0  0  0  0  0  0  0  0  0  0
    1.2772   -1.6575   -0.5265 C   0  0  0  0  0  0  0  0  0  0  0  0
   -2.9190   -1.6939   -2.8748 H   0  0  0  0  0  0  0  0  0  0  0  0
   -1.9948   -0.6419   -4.0301 H   0  0  0  0  0  0  0  0  0  0  0  0
   -3.7453   -0.3794   -3.7843 H   0  0  0  0  0  0  0  0  0  0  0  0
   -3.4795    0.4527   -1.5817 H   0  0  0  0  0  0  0  0  0  0  0  0
   -2.2742    1.3228   -2.5686 H   0  0  0  0  0  0  0  0  0  0  0  0
   -1.5075   -1.2334   -1.0171 H   0  0  0  0  0  0  0  0  0  0  0  0
   -0.7789    0.9057    0.5889 H   0  0  0  0  0  0  0  0  0  0  0  0
   -3.2246   -0.8171    0.5704 H   0  0  0  0  0  0  0  0  0  0  0  0
   -0.7306   -0.6751    2.4089 H   0  0  0  0  0  0  0  0  0  0  0  0
   -1.0666   -1.9448    1.1720 H   0  0  0  0  0  0  0  0  0  0  0  0
   -2.1366   -1.7924    2.6030 H   0  0  0  0  0  0  0  0  0  0  0  0
   -2.4009    1.3030    2.6463 H   0  0  0  0  0  0  0  0  0  0  0  0
   -3.7692    0.1268    2.7833 H   0  0  0  0  0  0  0  0  0  0  0  0
   -3.8017    1.4012    1.5105 H   0  0  0  0  0  0  0  0  0  0  0  0
    0.0528    1.2566   -1.8851 H   0  0  0  0  0  0  0  0  0  0  0  0
   -0.0163   -1.3695   -2.9108 H   0  0  0  0  0  0  0  0  0  0  0  0
    1.0516    2.5206   -0.6262 H   0  0  0  0  0  0  0  0  0  0  0  0
    2.5470    3.9360    0.5982 H   0  0  0  0  0  0  0  0  0  0  0  0
    4.5501    0.6163    2.1765 H   0  0  0  0  0  0  0  0  0  0  0  0
    4.7730   -1.4297    2.3662 H   0  0  0  0  0  0  0  0  0  0  0  0
    2.3580   -3.2309    0.4309 H   0  0  0  0  0  0  0  0  0  0  0  0
    0.6363   -2.3708   -1.0267 H   0  0  0  0  0  0  0  0  0  0  0  0
  1  2  1  0
  2  3  1  0
  3  4  1  0
  4  5  1  0
  5  6  1  0
  5  7  1  0
  3  8  1  0
  8  9  1  0
  8 10  1  0
 10 11  2  0
 11 12  1  0
 12 13  2  0
 13 14  1  0
 14 15  2  0
 14 16  1  0
 16 17  1  0
 17 18  2  0
 18 19  1  0
 18 20  1  0
 20 21  2  0
 21 10  1  0
 17 11  1  0
  1 22  1  0
  1 23  1  0
  1 24  1  0
  2 25  1  0
  2 26  1  0
  3 27  1  1
  4 28  1  0
  5 29  1  0
  6 30  1  0
  6 31  1  0
  6 32  1  0
  7 33  1  0
  7 34  1  0
  7 35  1  0
  8 36  1  6
  9 37  1  0
 12 38  1  0
 13 39  1  0
 16 40  1  0
 19 41  1  0
 20 42  1  0
 21 43  1  0
M  END
$$$$
