
     RDKit          3D

 45 48  0  0  0  0  0  0  0  0999 V2000
    7.0644    1.6552   -1.5459 N   0  0  0  0  0  0  0  0  0  0  0  0
    5.6610    1.8913   -1.4063 C   0  0  0  0  0  0  0  0  0  0  0  0
    5.1509    2.9610   -1.9335 N   0  0  0  0  0  0  0  0  0  0  0  0
    4.8088    0.9191   -0.6771 C   0  0  0  0  0  0  0  0  0  0  0  0
    3.7258    1.3656    0.1190 C   0  0  0  0  0  0  0  0  0  0  0  0
    2.9670    0.4063    0.7840 C   0  0  0  0  0  0  0  0  0  0  0  0
    3.2314   -0.9247    0.6888 C   0  0  0  0  0  0  0  0  0  0  0  0
    4.2825   -1.4099   -0.0815 C   0  0  0  0  0  0  0  0  0  0  0  0
    5.0790   -0.4741   -0.7681 C   0  0  0  0  0  0  0  0  0  0  0  0
    2.3469   -1.6328    1.4131 N   0  0  0  0  0  0  0  0  0  0  0  0
    1.5558   -0.6661    1.9539 C   0  0  0  0  0  0  0  0  0  0  0  0
    1.9057    0.5905    1.5775 N   0  0  0  0  0  0  0  0  0  0  0  0
    0.3430   -0.9653    2.8072 C   0  0  0  0  0  0  0  0  0  0  0  0
    0.4806   -2.2062    3.4652 O   0  0  0  0  0  0  0  0  0  0  0  0
    0.1905    0.0399    3.7771 O   0  0  0  0  0  0  0  0  0  0  0  0
   -0.8819   -0.9646    1.9264 C   0  0  0  0  0  0  0  0  0  0  0  0
   -1.4519   -2.0986    1.4341 N   0  0  0  0  0  0  0  0  0  0  0  0
   -2.4467   -1.6233    0.6641 C   0  0  0  0  0  0  0  0  0  0  0  0
   -2.4584   -0.2633    0.6879 C   0  0  0  0  0  0  0  0  0  0  0  0
   -1.4719    0.1735    1.4792 N   0  0  0  0  0  0  0  0  0  0  0  0
   -3.3835    0.4862   -0.0335 C   0  0  0  0  0  0  0  0  0  0  0  0
   -4.3383   -0.2111   -0.8139 C   0  0  0  0  0  0  0  0  0  0  0  0
   -4.3218   -1.6335   -0.8265 C   0  0  0  0  0  0  0  0  0  0  0  0
   -3.3652   -2.3511   -0.0841 C   0  0  0  0  0  0  0  0  0  0  0  0
   -5.3606    0.5299   -1.6008 C   0  0  0  0  0  0  0  0  0  0  0  0
   -6.6629   -0.0442   -1.8043 N   0  0  0  0  0  4  0  0  0  0  0  0
   -5.0560    1.6526   -2.1854 N   0  0  0  0  0  4  0  0  0  0  0  0
    7.5301    0.8568   -1.0609 H   0  0  0  0  0  0  0  0  0  0  0  0
    7.6579    2.3164   -2.0950 H   0  0  0  0  0  0  0  0  0  0  0  0
    4.1323    3.1862   -1.8878 H   0  0  0  0  0  0  0  0  0  0  0  0
    3.4944    2.4169    0.2333 H   0  0  0  0  0  0  0  0  0  0  0  0
    4.4796   -2.4716   -0.1547 H   0  0  0  0  0  0  0  0  0  0  0  0
    5.8907   -0.8377   -1.3850 H   0  0  0  0  0  0  0  0  0  0  0  0
    1.4462    1.4930    1.8330 H   0  0  0  0  0  0  0  0  0  0  0  0
    0.5888   -2.9178    2.7808 H   0  0  0  0  0  0  0  0  0  0  0  0
    0.9651   -0.0270    4.3958 H   0  0  0  0  0  0  0  0  0  0  0  0
   -1.2100    1.1625    1.6896 H   0  0  0  0  0  0  0  0  0  0  0  0
   -3.3727    1.5668    0.0279 H   0  0  0  0  0  0  0  0  0  0  0  0
   -5.0374   -2.1864   -1.4213 H   0  0  0  0  0  0  0  0  0  0  0  0
   -3.3446   -3.4331   -0.0975 H   0  0  0  0  0  0  0  0  0  0  0  0
   -6.9366   -0.6185   -0.9747 H   0  0  0  0  0  0  0  0  0  0  0  0
   -7.3780    0.7092   -1.9249 H   0  0  0  0  0  0  0  0  0  0  0  0
   -6.6417   -0.6442   -2.6598 H   0  0  0  0  0  0  0  0  0  0  0  0
   -4.1001    2.0675   -2.1201 H   0  0  0  0  0  0  0  0  0  0  0  0
   -5.7582    2.1584   -2.7703 H   0  0  0  0  0  0  0  0  0  0  0  0
  1  2  1  0
  2  3  2  3
  2  4  1  0
  4  5  2  0
  5  6  1  0
  6  7  2  0
  7  8  1  0
  8  9  2  0
  7 10  1  0
 10 11  2  0
 11 12  1  0
 11 13  1  0
 13 14  1  0
 13 15  1  0
 13 16  1  0
 16 17  2  0
 17 18  1  0
 18 19  2  0
 19 20  1  0
 19 21  1  0
 21 22  2  0
 22 23  1  0
 23 24  2  0
 22 25  1  0
 25 26  1  0
 25 27  2  3
  9  4  1  0
 20 16  1  0
 12  6  1  0
 24 18  1  0
  1 28  1  0
  1 29  1  0
  3 30  1  0
  5 31  1  0
  8 32  1  0
  9 33  1  0
 12 34  1  0
 14 35  1  0
 15 36  1  0
 20 37  1  0
 21 38  1  0
 23 39  1  0
 24 40  1  0
 26 41  1  0
 26 42  1  0
 26 43  1  0
 27 44  1  0
 27 45  1  0
M  CHG  2  26   1  27   1
M  END
$$$$
