
     RDKit          3D

 42 44  0  0  0  0  0  0  0  0999 V2000
   -2.7024    2.0469   -1.4940 C   0  0  0  0  0  0  0  0  0  0  0  0
   -2.3606    0.7513   -0.8096 C   0  0  0  0  0  0  0  0  0  0  0  0
   -3.2271   -0.0446   -0.1591 C   0  0  0  0  0  0  0  0  0  0  0  0
   -4.7088    0.1780   -0.0090 C   0  0  0  0  0  0  0  0  0  0  0  0
   -4.9746    1.1524    1.0925 C   0  0  0  0  0  0  0  0  0  0  0  0
   -5.1517    2.5007    0.7989 O   0  0  0  0  0  0  0  0  0  0  0  0
   -5.0017    0.7593    2.2895 O   0  0  0  0  0  0  0  0  0  0  0  0
   -2.4734   -1.1263    0.4806 C   0  0  0  0  0  0  0  0  0  0  0  0
   -2.9435   -2.2176    1.2172 C   0  0  0  0  0  0  0  0  0  0  0  0
   -2.0196   -3.1816    1.6492 C   0  0  0  0  0  0  0  0  0  0  0  0
   -2.4457   -4.2535    2.3615 F   0  0  0  0  0  0  0  0  0  0  0  0
   -0.6572   -3.0553    1.3203 C   0  0  0  0  0  0  0  0  0  0  0  0
   -0.2044   -1.9532    0.5782 C   0  0  0  0  0  0  0  0  0  0  0  0
   -1.1314   -0.9713    0.2033 C   0  0  0  0  0  0  0  0  0  0  0  0
   -0.9839    0.2564   -0.5912 C   0  0  0  0  0  0  0  0  0  0  0  0
    0.1364    0.8808   -0.9960 C   0  0  0  0  0  0  0  0  0  0  0  0
    1.4951    0.5186   -0.5624 C   0  0  0  0  0  0  0  0  0  0  0  0
    1.8353    0.5174    0.8006 C   0  0  0  0  0  0  0  0  0  0  0  0
    3.1411    0.2170    1.1989 C   0  0  0  0  0  0  0  0  0  0  0  0
    4.1223   -0.0610    0.2406 C   0  0  0  0  0  0  0  0  0  0  0  0
    3.7924   -0.0298   -1.1214 C   0  0  0  0  0  0  0  0  0  0  0  0
    2.4867    0.2702   -1.5213 C   0  0  0  0  0  0  0  0  0  0  0  0
    5.7802   -0.4397    0.7657 S   0  0  0  0  0  4  0  0  0  0  0  0
    6.8098    0.8508    0.0429 C   0  0  0  0  0  0  0  0  0  0  0  0
    6.1406   -1.7031   -0.0046 O   0  0  0  0  0  0  0  0  0  0  0  0
   -3.7672    2.0918   -1.7946 H   0  0  0  0  0  0  0  0  0  0  0  0
   -2.0984    2.1590   -2.4174 H   0  0  0  0  0  0  0  0  0  0  0  0
   -2.4847    2.8929   -0.8097 H   0  0  0  0  0  0  0  0  0  0  0  0
   -5.1511    0.5451   -0.9575 H   0  0  0  0  0  0  0  0  0  0  0  0
   -5.2195   -0.7808    0.2167 H   0  0  0  0  0  0  0  0  0  0  0  0
   -5.3154    3.1757    1.5361 H   0  0  0  0  0  0  0  0  0  0  0  0
   -3.9946   -2.3329    1.4434 H   0  0  0  0  0  0  0  0  0  0  0  0
    0.0446   -3.8194    1.6287 H   0  0  0  0  0  0  0  0  0  0  0  0
    0.8337   -1.9016    0.2894 H   0  0  0  0  0  0  0  0  0  0  0  0
    0.0562    1.7406   -1.6473 H   0  0  0  0  0  0  0  0  0  0  0  0
    1.0889    0.7440    1.5522 H   0  0  0  0  0  0  0  0  0  0  0  0
    3.3894    0.2064    2.2526 H   0  0  0  0  0  0  0  0  0  0  0  0
    4.5448   -0.2357   -1.8718 H   0  0  0  0  0  0  0  0  0  0  0  0
    2.2463    0.2979   -2.5772 H   0  0  0  0  0  0  0  0  0  0  0  0
    6.4940    1.8388    0.4365 H   0  0  0  0  0  0  0  0  0  0  0  0
    6.7088    0.8449   -1.0620 H   0  0  0  0  0  0  0  0  0  0  0  0
    7.8703    0.6705    0.3140 H   0  0  0  0  0  0  0  0  0  0  0  0
  1  2  1  0
  2  3  2  0
  3  4  1  0
  4  5  1  0
  5  6  1  0
  5  7  2  0
  3  8  1  0
  8  9  2  0
  9 10  1  0
 10 11  1  0
 10 12  2  0
 12 13  1  0
 13 14  2  0
 14 15  1  0
 15 16  2  0
 16 17  1  0
 17 18  2  0
 18 19  1  0
 19 20  2  0
 20 21  1  0
 21 22  2  0
 20 23  1  0
 23 24  1  0
 23 25  2  0
 15  2  1  0
 22 17  1  0
 14  8  1  0
  1 26  1  0
  1 27  1  0
  1 28  1  0
  4 29  1  0
  4 30  1  0
  6 31  1  0
  9 32  1  0
 12 33  1  0
 13 34  1  0
 16 35  1  0
 18 36  1  0
 19 37  1  0
 21 38  1  0
 22 39  1  0
 24 40  1  0
 24 41  1  0
 24 42  1  0
M  END
$$$$
