
     RDKit          3D

 38 38  0  0  0  0  0  0  0  0999 V2000
   -3.6241   -2.4332    0.4663 C   0  0  0  0  0  0  0  0  0  0  0  0
   -3.8252   -0.9472    0.7658 C   0  0  0  0  0  0  0  0  0  0  0  0
   -3.3876   -0.0918   -0.3603 N   0  0  0  0  0  0  0  0  0  0  0  0
   -3.8340    1.3121   -0.2079 C   0  0  0  0  0  0  0  0  0  0  0  0
   -4.4273    1.8073   -1.5212 C   0  0  0  0  0  0  0  0  0  0  0  0
   -1.9468   -0.1965   -0.7068 C   0  0  0  0  0  0  0  0  0  0  0  0
   -0.9883    0.0018    0.4869 C   0  0  0  0  0  0  0  0  0  0  0  0
    0.3999    0.0827    0.0310 N   0  0  0  0  0  0  0  0  0  0  0  0
    1.4780    0.2764    0.9602 C   0  0  0  0  0  0  0  0  0  0  0  0
    1.2182    0.5389    2.1669 O   0  0  0  0  0  0  0  0  0  0  0  0
    2.8929    0.1921    0.5241 C   0  0  0  0  0  0  0  0  0  0  0  0
    3.2650   -0.5710   -0.5982 C   0  0  0  0  0  0  0  0  0  0  0  0
    4.6045   -0.6454   -0.9925 C   0  0  0  0  0  0  0  0  0  0  0  0
    5.5933    0.0346   -0.2702 C   0  0  0  0  0  0  0  0  0  0  0  0
    6.9626   -0.0428   -0.6751 N   0  0  0  0  0  0  0  0  0  0  0  0
    5.2317    0.7861    0.8550 C   0  0  0  0  0  0  0  0  0  0  0  0
    3.8935    0.8614    1.2520 C   0  0  0  0  0  0  0  0  0  0  0  0
   -2.5469   -2.6980    0.4727 H   0  0  0  0  0  0  0  0  0  0  0  0
   -4.1301   -3.0404    1.2462 H   0  0  0  0  0  0  0  0  0  0  0  0
   -4.0619   -2.6868   -0.5224 H   0  0  0  0  0  0  0  0  0  0  0  0
   -4.9167   -0.8067    0.9304 H   0  0  0  0  0  0  0  0  0  0  0  0
   -3.3142   -0.6663    1.7116 H   0  0  0  0  0  0  0  0  0  0  0  0
   -4.6181    1.4170    0.5753 H   0  0  0  0  0  0  0  0  0  0  0  0
   -3.0016    1.9869    0.0861 H   0  0  0  0  0  0  0  0  0  0  0  0
   -3.6625    1.7827   -2.3256 H   0  0  0  0  0  0  0  0  0  0  0  0
   -5.2858    1.1668   -1.8153 H   0  0  0  0  0  0  0  0  0  0  0  0
   -4.7841    2.8520   -1.4011 H   0  0  0  0  0  0  0  0  0  0  0  0
   -1.7027    0.5508   -1.4941 H   0  0  0  0  0  0  0  0  0  0  0  0
   -1.7511   -1.1875   -1.1684 H   0  0  0  0  0  0  0  0  0  0  0  0
   -1.0750   -0.8560    1.1859 H   0  0  0  0  0  0  0  0  0  0  0  0
   -1.2416    0.9313    1.0372 H   0  0  0  0  0  0  0  0  0  0  0  0
    0.6071    0.0367   -0.9919 H   0  0  0  0  0  0  0  0  0  0  0  0
    2.5310   -1.1327   -1.1601 H   0  0  0  0  0  0  0  0  0  0  0  0
    4.8724   -1.2390   -1.8576 H   0  0  0  0  0  0  0  0  0  0  0  0
    7.7071    0.4592   -0.1415 H   0  0  0  0  0  0  0  0  0  0  0  0
    7.2420   -0.6022   -1.5117 H   0  0  0  0  0  0  0  0  0  0  0  0
    5.9866    1.3138    1.4244 H   0  0  0  0  0  0  0  0  0  0  0  0
    3.6395    1.4529    2.1230 H   0  0  0  0  0  0  0  0  0  0  0  0
  1  2  1  0
  2  3  1  0
  3  4  1  0
  4  5  1  0
  3  6  1  0
  6  7  1  0
  7  8  1  0
  8  9  1  0
  9 10  2  0
  9 11  1  0
 11 12  2  0
 12 13  1  0
 13 14  2  0
 14 15  1  0
 14 16  1  0
 16 17  2  0
 17 11  1  0
  1 18  1  0
  1 19  1  0
  1 20  1  0
  2 21  1  0
  2 22  1  0
  4 23  1  0
  4 24  1  0
  5 25  1  0
  5 26  1  0
  5 27  1  0
  6 28  1  0
  6 29  1  0
  7 30  1  0
  7 31  1  0
  8 32  1  0
 12 33  1  0
 13 34  1  0
 15 35  1  0
 15 36  1  0
 16 37  1  0
 17 38  1  0
M  END
$$$$
