
     RDKit          3D

 76 80  0  0  0  0  0  0  0  0999 V2000
   -7.4606    5.0035   -0.3818 C   0  0  0  0  0  0  0  0  0  0  0  0
   -6.8936    3.6176   -0.2945 C   0  0  0  0  0  0  0  0  0  0  0  0
   -7.6326    2.5205   -0.7612 C   0  0  0  0  0  0  0  0  0  0  0  0
   -7.0900    1.2331   -0.7132 C   0  0  0  0  0  0  0  0  0  0  0  0
   -5.7911    1.0267   -0.2231 C   0  0  0  0  0  0  0  0  0  0  0  0
   -5.0535    2.1269    0.2461 C   0  0  0  0  0  0  0  0  0  0  0  0
   -5.5963    3.4142    0.1986 C   0  0  0  0  0  0  0  0  0  0  0  0
   -5.2528   -0.3048   -0.1596 N   0  0  0  0  0  0  0  0  0  0  0  0
   -5.9796   -1.3623    0.1667 N   0  0  0  0  0  0  0  0  0  0  0  0
   -5.1742   -2.4466    0.1454 C   0  0  0  0  0  0  0  0  0  0  0  0
   -3.8935   -2.0659   -0.2284 C   0  0  0  0  0  0  0  0  0  0  0  0
   -3.9833   -0.6986   -0.4025 C   0  0  0  0  0  0  0  0  0  0  0  0
   -2.9618    0.1454   -0.9578 N   0  0  0  0  0  0  0  0  0  0  0  0
   -1.5570   -0.1036   -0.8072 C   0  0  0  0  0  0  0  0  0  0  0  0
   -1.1501   -1.0061   -0.0256 O   0  0  0  0  0  0  0  0  0  0  0  0
   -0.6154    0.6853   -1.5486 N   0  0  0  0  0  0  0  0  0  0  0  0
    0.8058    0.6150   -1.3375 C   0  0  0  0  0  0  0  0  0  0  0  0
    1.3119    0.6916   -0.0328 C   0  0  0  0  0  0  0  0  0  0  0  0
    2.6844    0.6799    0.2044 C   0  0  0  0  0  0  0  0  0  0  0  0
    3.5959    0.5994   -0.8618 C   0  0  0  0  0  0  0  0  0  0  0  0
    4.9845    0.5905   -0.6419 O   0  0  0  0  0  0  0  0  0  0  0  0
    5.6056    0.6584    0.6392 C   0  0  0  0  0  0  0  0  0  0  0  0
    7.1248    0.6275    0.4672 C   0  0  0  0  0  0  0  0  0  0  0  0
    7.8153    0.9051    1.7451 N   0  0  0  0  0  0  0  0  0  0  0  0
    7.7069   -0.2372    2.6821 C   0  0  0  0  0  0  0  0  0  0  0  0
    8.7146   -0.1111    3.8414 C   0  0  0  0  0  0  0  0  0  0  0  0
    9.1692    1.2204    3.9626 O   0  0  0  0  0  0  0  0  0  0  0  0
    9.9427    1.5665    2.8270 C   0  0  0  0  0  0  0  0  0  0  0  0
    9.2336    1.2239    1.4987 C   0  0  0  0  0  0  0  0  0  0  0  0
    3.1070    0.5255   -2.1828 C   0  0  0  0  0  0  0  0  0  0  0  0
    1.7048    0.5310   -2.4270 C   0  0  0  0  0  0  0  0  0  0  0  0
    1.2415    0.4255   -3.7552 C   0  0  0  0  0  0  0  0  0  0  0  0
    2.1431    0.3412   -4.8174 C   0  0  0  0  0  0  0  0  0  0  0  0
    3.5153    0.3528   -4.5765 C   0  0  0  0  0  0  0  0  0  0  0  0
    3.9978    0.4410   -3.2706 C   0  0  0  0  0  0  0  0  0  0  0  0
   -5.6431   -3.8688    0.3978 C   0  0  0  0  0  0  0  0  0  0  0  0
   -4.7274   -4.5389    1.4409 C   0  0  0  0  0  0  0  0  0  0  0  0
   -5.5899   -4.6603   -0.9219 C   0  0  0  0  0  0  0  0  0  0  0  0
   -7.0911   -3.8743    0.9311 C   0  0  0  0  0  0  0  0  0  0  0  0
   -8.5669    4.9814   -0.2833 H   0  0  0  0  0  0  0  0  0  0  0  0
   -7.1931    5.4505   -1.3620 H   0  0  0  0  0  0  0  0  0  0  0  0
   -7.0567    5.6442    0.4309 H   0  0  0  0  0  0  0  0  0  0  0  0
   -8.6295    2.6611   -1.1606 H   0  0  0  0  0  0  0  0  0  0  0  0
   -7.6765    0.3969   -1.0725 H   0  0  0  0  0  0  0  0  0  0  0  0
   -4.0649    1.9882    0.6641 H   0  0  0  0  0  0  0  0  0  0  0  0
   -5.0076    4.2510    0.5539 H   0  0  0  0  0  0  0  0  0  0  0  0
   -3.0438   -2.7087   -0.4140 H   0  0  0  0  0  0  0  0  0  0  0  0
   -3.2541    0.9931   -1.4925 H   0  0  0  0  0  0  0  0  0  0  0  0
   -0.9831    1.3301   -2.2835 H   0  0  0  0  0  0  0  0  0  0  0  0
    0.6371    0.7851    0.8088 H   0  0  0  0  0  0  0  0  0  0  0  0
    3.0272    0.7440    1.2279 H   0  0  0  0  0  0  0  0  0  0  0  0
    5.2773   -0.2100    1.2489 H   0  0  0  0  0  0  0  0  0  0  0  0
    5.3129    1.6043    1.1449 H   0  0  0  0  0  0  0  0  0  0  0  0
    7.3838    1.4115   -0.2799 H   0  0  0  0  0  0  0  0  0  0  0  0
    7.4390   -0.3529    0.0427 H   0  0  0  0  0  0  0  0  0  0  0  0
    6.6832   -0.2521    3.1137 H   0  0  0  0  0  0  0  0  0  0  0  0
    7.8779   -1.2071    2.1621 H   0  0  0  0  0  0  0  0  0  0  0  0
    9.5713   -0.8087    3.6916 H   0  0  0  0  0  0  0  0  0  0  0  0
    8.2235   -0.4081    4.7924 H   0  0  0  0  0  0  0  0  0  0  0  0
   10.9366    1.0681    2.8744 H   0  0  0  0  0  0  0  0  0  0  0  0
   10.1290    2.6610    2.8638 H   0  0  0  0  0  0  0  0  0  0  0  0
    9.7452    0.3585    1.0177 H   0  0  0  0  0  0  0  0  0  0  0  0
    9.3191    2.0966    0.8136 H   0  0  0  0  0  0  0  0  0  0  0  0
    0.1854    0.3933   -3.9854 H   0  0  0  0  0  0  0  0  0  0  0  0
    1.7753    0.2621   -5.8324 H   0  0  0  0  0  0  0  0  0  0  0  0
    4.2087    0.2864   -5.4051 H   0  0  0  0  0  0  0  0  0  0  0  0
    5.0699    0.4395   -3.1174 H   0  0  0  0  0  0  0  0  0  0  0  0
   -4.7269   -3.9574    2.3884 H   0  0  0  0  0  0  0  0  0  0  0  0
   -5.0760   -5.5706    1.6633 H   0  0  0  0  0  0  0  0  0  0  0  0
   -3.6820   -4.6048    1.0705 H   0  0  0  0  0  0  0  0  0  0  0  0
   -5.9428   -5.7030   -0.7681 H   0  0  0  0  0  0  0  0  0  0  0  0
   -6.2356   -4.1812   -1.6896 H   0  0  0  0  0  0  0  0  0  0  0  0
   -4.5516   -4.7014   -1.3163 H   0  0  0  0  0  0  0  0  0  0  0  0
   -7.4333   -4.9132    1.1292 H   0  0  0  0  0  0  0  0  0  0  0  0
   -7.1605   -3.2986    1.8796 H   0  0  0  0  0  0  0  0  0  0  0  0
   -7.7849   -3.4187    0.1915 H   0  0  0  0  0  0  0  0  0  0  0  0
  1  2  1  0
  2  3  2  0
  3  4  1  0
  4  5  2  0
  5  6  1  0
  6  7  2  0
  5  8  1  0
  8  9  1  0
  9 10  2  0
 10 11  1  0
 11 12  2  0
 12 13  1  0
 13 14  1  0
 14 15  2  0
 14 16  1  0
 16 17  1  0
 17 18  2  0
 18 19  1  0
 19 20  2  0
 20 21  1  0
 21 22  1  0
 22 23  1  0
 23 24  1  0
 24 25  1  0
 25 26  1  0
 26 27  1  0
 27 28  1  0
 28 29  1  0
 20 30  1  0
 30 31  2  0
 31 32  1  0
 32 33  2  0
 33 34  1  0
 34 35  2  0
 10 36  1  0
 36 37  1  0
 36 38  1  0
 36 39  1  0
  7  2  1  0
 12  8  1  0
 31 17  1  0
 29 24  1  0
 35 30  1  0
  1 40  1  0
  1 41  1  0
  1 42  1  0
  3 43  1  0
  4 44  1  0
  6 45  1  0
  7 46  1  0
 11 47  1  0
 13 48  1  0
 16 49  1  0
 18 50  1  0
 19 51  1  0
 22 52  1  0
 22 53  1  0
 23 54  1  0
 23 55  1  0
 25 56  1  0
 25 57  1  0
 26 58  1  0
 26 59  1  0
 28 60  1  0
 28 61  1  0
 29 62  1  0
 29 63  1  0
 32 64  1  0
 33 65  1  0
 34 66  1  0
 35 67  1  0
 37 68  1  0
 37 69  1  0
 37 70  1  0
 38 71  1  0
 38 72  1  0
 38 73  1  0
 39 74  1  0
 39 75  1  0
 39 76  1  0
M  END
$$$$
