
     RDKit          3D

 45 46  0  0  0  0  0  0  0  0999 V2000
   -4.2814   -2.2996    1.9357 O   0  0  0  0  0  0  0  0  0  0  0  0
   -3.5164   -1.3458    1.2644 C   0  0  0  0  0  0  0  0  0  0  0  0
   -3.3704   -0.0689    1.8017 C   0  0  0  0  0  0  0  0  0  0  0  0
   -2.6144    0.9001    1.1466 C   0  0  0  0  0  0  0  0  0  0  0  0
   -2.4623    2.1364    1.7809 O   0  0  0  0  0  0  0  0  0  0  0  0
   -2.0089    0.6087   -0.1003 C   0  0  0  0  0  0  0  0  0  0  0  0
   -2.1089   -0.7125   -0.6337 C   0  0  0  0  0  0  0  0  0  0  0  0
   -1.4064   -1.0996   -1.9263 C   0  0  0  0  0  0  0  0  0  0  0  0
    0.0426   -1.4794   -1.7107 C   0  0  0  0  0  0  0  0  0  0  0  0
    0.9092   -0.8694   -2.3190 O   0  0  0  0  0  0  0  0  0  0  0  0
    0.4590   -2.6401   -0.8354 C   0  0  0  0  0  0  0  0  0  0  0  0
    0.5714   -2.3002    0.6652 C   0  0  0  0  0  0  0  0  0  0  0  0
    1.3121   -0.9918    0.9873 C   0  0  0  0  0  0  0  0  0  0  0  0
    2.7951   -1.0193    0.5808 C   0  0  0  0  0  0  0  0  0  0  0  0
    3.5036    0.3072    0.8974 C   0  0  0  0  0  0  0  0  0  0  0  0
    3.0412    1.4089   -0.0199 C   0  0  0  0  0  0  0  0  0  0  0  0
    2.0627    2.2559    0.3366 C   0  0  0  0  0  0  0  0  0  0  0  0
    1.4745    3.2469   -0.6336 C   0  0  0  0  0  0  0  0  0  0  0  0
    0.7986    2.5494   -1.8214 C   0  0  0  0  0  0  0  0  0  0  0  0
   -0.0525    1.4963   -1.3725 O   0  0  0  0  0  0  0  0  0  0  0  0
   -1.3269    1.6990   -0.8403 C   0  0  0  0  0  0  0  0  0  0  0  0
   -1.9014    2.8130   -0.9839 O   0  0  0  0  0  0  0  0  0  0  0  0
   -2.8894   -1.6762    0.0577 C   0  0  0  0  0  0  0  0  0  0  0  0
   -3.1093   -3.3197   -0.5524 Cl  0  0  0  0  0  0  0  0  0  0  0  0
   -4.7441   -2.0897    2.8126 H   0  0  0  0  0  0  0  0  0  0  0  0
   -3.8384    0.1719    2.7483 H   0  0  0  0  0  0  0  0  0  0  0  0
   -1.8186    2.8502    1.4657 H   0  0  0  0  0  0  0  0  0  0  0  0
   -1.9181   -1.9387   -2.4378 H   0  0  0  0  0  0  0  0  0  0  0  0
   -1.4747   -0.2608   -2.6518 H   0  0  0  0  0  0  0  0  0  0  0  0
    1.4375   -3.0306   -1.1904 H   0  0  0  0  0  0  0  0  0  0  0  0
   -0.2648   -3.4713   -0.9628 H   0  0  0  0  0  0  0  0  0  0  0  0
   -0.4462   -2.2364    1.1006 H   0  0  0  0  0  0  0  0  0  0  0  0
    1.0794   -3.1424    1.1832 H   0  0  0  0  0  0  0  0  0  0  0  0
    0.7880   -0.1496    0.4976 H   0  0  0  0  0  0  0  0  0  0  0  0
    1.2474   -0.8190    2.0837 H   0  0  0  0  0  0  0  0  0  0  0  0
    3.3043   -1.8345    1.1394 H   0  0  0  0  0  0  0  0  0  0  0  0
    2.8999   -1.2366   -0.5033 H   0  0  0  0  0  0  0  0  0  0  0  0
    3.3502    0.5829    1.9641 H   0  0  0  0  0  0  0  0  0  0  0  0
    4.5958    0.1701    0.7474 H   0  0  0  0  0  0  0  0  0  0  0  0
    3.4486    1.4449   -1.0263 H   0  0  0  0  0  0  0  0  0  0  0  0
    1.6387    2.2014    1.3358 H   0  0  0  0  0  0  0  0  0  0  0  0
    2.2711    3.9280   -1.0028 H   0  0  0  0  0  0  0  0  0  0  0  0
    0.7186    3.8627   -0.1006 H   0  0  0  0  0  0  0  0  0  0  0  0
    1.5781    2.1131   -2.4807 H   0  0  0  0  0  0  0  0  0  0  0  0
    0.2259    3.2852   -2.4265 H   0  0  0  0  0  0  0  0  0  0  0  0
  1  2  1  0
  2  3  2  0
  3  4  1  0
  4  5  1  0
  4  6  2  0
  6  7  1  0
  7  8  1  0
  8  9  1  0
  9 10  2  0
  9 11  1  0
 11 12  1  0
 12 13  1  0
 13 14  1  0
 14 15  1  0
 15 16  1  0
 16 17  2  0
 17 18  1  0
 18 19  1  0
 19 20  1  0
 20 21  1  0
 21 22  2  0
  7 23  2  0
 23 24  1  0
 23  2  1  0
 21  6  1  0
  1 25  1  0
  3 26  1  0
  5 27  1  0
  8 28  1  0
  8 29  1  0
 11 30  1  0
 11 31  1  0
 12 32  1  0
 12 33  1  0
 13 34  1  0
 13 35  1  0
 14 36  1  0
 14 37  1  0
 15 38  1  0
 15 39  1  0
 16 40  1  0
 17 41  1  0
 18 42  1  0
 18 43  1  0
 19 44  1  0
 19 45  1  0
M  END
$$$$
