
     RDKit          3D

 24 24  0  0  0  0  0  0  0  0999 V2000
   -2.5010    0.7388   -0.9523 O   0  0  0  0  0  0  0  0  0  0  0  0
   -1.3773    0.4383   -0.1640 C   0  0  1  0  0  0  0  0  0  0  0  0
   -0.9564   -1.0279   -0.3966 C   0  0  2  0  0  0  0  0  0  0  0  0
   -1.9987   -1.8728    0.0215 O   0  0  0  0  0  0  0  0  0  0  0  0
    0.3313   -1.3636    0.3887 C   0  0  1  0  0  0  0  0  0  0  0  0
    0.7403   -2.6748    0.0920 O   0  0  0  0  0  0  0  0  0  0  0  0
    1.4686   -0.3940    0.0157 C   0  0  2  0  0  0  0  0  0  0  0  0
    2.6049   -0.6972    0.7838 O   0  0  0  0  0  0  0  0  0  0  0  0
    1.0522    1.0726    0.2491 C   0  0  2  0  0  0  0  0  0  0  0  0
    0.8636    1.3003    1.6243 O   0  0  0  0  0  0  0  0  0  0  0  0
   -0.2357    1.4011   -0.5388 C   0  0  2  0  0  0  0  0  0  0  0  0
   -0.6388    2.7213   -0.2792 O   0  0  0  0  0  0  0  0  0  0  0  0
   -3.2958    0.3921   -0.4689 H   0  0  0  0  0  0  0  0  0  0  0  0
   -1.6244    0.5838    0.9153 H   0  0  0  0  0  0  0  0  0  0  0  0
   -0.7666   -1.1689   -1.4884 H   0  0  0  0  0  0  0  0  0  0  0  0
   -1.9215   -2.7120   -0.5034 H   0  0  0  0  0  0  0  0  0  0  0  0
    0.1285   -1.2681    1.4829 H   0  0  0  0  0  0  0  0  0  0  0  0
    0.2329   -3.2811    0.6925 H   0  0  0  0  0  0  0  0  0  0  0  0
    1.7065   -0.5335   -1.0662 H   0  0  0  0  0  0  0  0  0  0  0  0
    3.3768   -0.2571    0.3404 H   0  0  0  0  0  0  0  0  0  0  0  0
    1.8756    1.7233   -0.1300 H   0  0  0  0  0  0  0  0  0  0  0  0
    0.9686    2.2761    1.7736 H   0  0  0  0  0  0  0  0  0  0  0  0
   -0.0277    1.2889   -1.6299 H   0  0  0  0  0  0  0  0  0  0  0  0
   -0.0057    3.3144   -0.7622 H   0  0  0  0  0  0  0  0  0  0  0  0
  1  2  1  0
  2  3  1  0
  3  4  1  0
  3  5  1  0
  5  6  1  0
  5  7  1  0
  7  8  1  0
  7  9  1  0
  9 10  1  0
  9 11  1  0
 11 12  1  0
 11  2  1  0
  1 13  1  0
  2 14  1  1
  3 15  1  6
  4 16  1  0
  5 17  1  1
  6 18  1  0
  7 19  1  6
  8 20  1  0
  9 21  1  6
 10 22  1  0
 11 23  1  6
 12 24  1  0
M  END
$$$$
