
     RDKit          3D

 30 33  0  0  0  0  0  0  0  0999 V2000
    2.0009    2.6293    1.2843 Cl  0  0  0  0  0  0  0  0  0  0  0  0
    2.8058    1.2429    0.5728 C   0  0  0  0  0  0  0  0  0  0  0  0
    4.1802    1.0298    0.5374 C   0  0  0  0  0  0  0  0  0  0  0  0
    4.4681   -0.0922   -0.1615 N   0  0  0  0  0  0  0  0  0  0  0  0
    3.2839   -0.5783   -0.5652 C   0  0  0  0  0  0  0  0  0  0  0  0
    2.2457    0.1961   -0.1353 C   0  0  0  0  0  0  0  0  0  0  0  0
    0.9393   -0.1416   -0.4911 C   0  0  0  0  0  0  0  0  0  0  0  0
    0.7606   -1.2449   -1.2772 N   0  0  0  0  0  0  0  0  0  0  0  0
    1.8198   -2.0029   -1.7003 C   0  0  0  0  0  0  0  0  0  0  0  0
    3.0955   -1.6707   -1.3440 N   0  0  0  0  0  0  0  0  0  0  0  0
   -0.1929    0.6125   -0.0369 N   0  0  0  0  0  0  0  0  0  0  0  0
   -0.5899    0.5275    1.3805 C   0  0  0  0  0  0  0  0  0  0  0  0
   -1.7627   -0.4590    1.5488 C   0  0  0  0  0  0  0  0  0  0  0  0
   -2.7679   -0.2461    0.4566 C   0  0  0  0  0  0  0  0  0  0  0  0
   -2.4968    0.3848   -0.7258 C   0  0  0  0  0  0  0  0  0  0  0  0
   -1.1977    1.0685   -1.0115 C   0  0  0  0  0  0  0  0  0  0  0  0
   -3.5806    0.3587   -1.5239 N   0  0  0  0  0  0  0  0  0  0  0  0
   -4.4889   -0.3329   -0.7935 C   0  0  0  0  0  0  0  0  0  0  0  0
   -4.0196   -0.7206    0.4127 N   0  0  0  0  0  0  0  0  0  0  0  0
    4.9285    1.6747    0.9792 H   0  0  0  0  0  0  0  0  0  0  0  0
    5.4151   -0.4820   -0.3650 H   0  0  0  0  0  0  0  0  0  0  0  0
    1.6446   -2.8704   -2.3215 H   0  0  0  0  0  0  0  0  0  0  0  0
    0.2632    0.2034    2.0158 H   0  0  0  0  0  0  0  0  0  0  0  0
   -0.9079    1.5346    1.7282 H   0  0  0  0  0  0  0  0  0  0  0  0
   -1.3813   -1.5003    1.4838 H   0  0  0  0  0  0  0  0  0  0  0  0
   -2.2420   -0.3123    2.5400 H   0  0  0  0  0  0  0  0  0  0  0  0
   -0.8766    0.8534   -2.0539 H   0  0  0  0  0  0  0  0  0  0  0  0
   -1.3374    2.1647   -0.9046 H   0  0  0  0  0  0  0  0  0  0  0  0
   -5.4886   -0.5541   -1.1434 H   0  0  0  0  0  0  0  0  0  0  0  0
   -4.5204   -1.2728    1.1436 H   0  0  0  0  0  0  0  0  0  0  0  0
  1  2  1  0
  2  3  2  0
  3  4  1  0
  4  5  1  0
  5  6  2  0
  6  7  1  0
  7  8  2  0
  8  9  1  0
  9 10  2  0
  7 11  1  0
 11 12  1  0
 12 13  1  0
 13 14  1  0
 14 15  2  0
 15 16  1  0
 15 17  1  0
 17 18  2  0
 18 19  1  0
  6  2  1  0
 16 11  1  0
 10  5  1  0
 19 14  1  0
  3 20  1  0
  4 21  1  0
  9 22  1  0
 12 23  1  0
 12 24  1  0
 13 25  1  0
 13 26  1  0
 16 27  1  0
 16 28  1  0
 18 29  1  0
 19 30  1  0
M  END
$$$$
