
     RDKit          3D

 42 44  0  0  0  0  0  0  0  0999 V2000
   -5.1658    2.7749    2.8041 C   0  0  0  0  0  0  0  0  0  0  0  0
   -5.5315    1.4983    2.2905 O   0  0  0  0  0  0  0  0  0  0  0  0
   -4.8242    0.8152    1.2900 C   0  0  0  0  0  0  0  0  0  0  0  0
   -3.6680    1.3452    0.6861 C   0  0  0  0  0  0  0  0  0  0  0  0
   -2.9965    0.6230   -0.3050 C   0  0  0  0  0  0  0  0  0  0  0  0
   -3.4558   -0.6480   -0.6915 C   0  0  0  0  0  0  0  0  0  0  0  0
   -4.6244   -1.1572   -0.1140 C   0  0  0  0  0  0  0  0  0  0  0  0
   -5.2961   -0.4362    0.8776 C   0  0  0  0  0  0  0  0  0  0  0  0
   -2.8135   -1.3971   -1.7346 N   0  0  0  0  0  0  0  0  0  0  0  0
   -1.5329   -1.5800   -1.8790 C   0  0  0  0  0  0  0  0  0  0  0  0
   -1.0134   -2.2673   -2.9178 N   0  0  0  0  0  0  0  0  0  0  0  0
    0.3420   -2.3755   -2.8470 C   0  0  0  0  0  0  0  0  0  0  0  0
    1.0889   -3.0288   -3.8770 N   0  0  0  0  0  0  0  0  0  0  0  0
    0.9212   -1.7669   -1.7246 C   0  0  0  0  0  0  0  0  0  0  0  0
   -0.3261   -1.0971   -0.8038 S   0  0  0  0  0  0  0  0  0  0  0  0
    2.3436   -1.7880   -1.3233 C   0  0  0  0  0  0  0  0  0  0  0  0
    3.0463   -2.7949   -1.6085 O   0  0  0  0  0  0  0  0  0  0  0  0
    2.9533   -0.6780   -0.5525 C   0  0  0  0  0  0  0  0  0  0  0  0
    4.0121   -0.9363    0.3346 C   0  0  0  0  0  0  0  0  0  0  0  0
    4.6018    0.1036    1.0595 C   0  0  0  0  0  0  0  0  0  0  0  0
    4.1483    1.4262    0.9007 C   0  0  0  0  0  0  0  0  0  0  0  0
    4.7060    2.5033    1.6055 O   0  0  0  0  0  0  0  0  0  0  0  0
    5.7698    2.3847    2.5445 C   0  0  0  0  0  0  0  0  0  0  0  0
    3.1049    1.6858    0.0060 C   0  0  0  0  0  0  0  0  0  0  0  0
    2.5142    0.6473   -0.7190 C   0  0  0  0  0  0  0  0  0  0  0  0
   -4.1544    2.7276    3.2603 H   0  0  0  0  0  0  0  0  0  0  0  0
   -5.8944    3.0737    3.5853 H   0  0  0  0  0  0  0  0  0  0  0  0
   -5.1842    3.5325    1.9923 H   0  0  0  0  0  0  0  0  0  0  0  0
   -3.2869    2.3175    0.9670 H   0  0  0  0  0  0  0  0  0  0  0  0
   -2.1353    1.0679   -0.7856 H   0  0  0  0  0  0  0  0  0  0  0  0
   -5.0079   -2.1208   -0.4254 H   0  0  0  0  0  0  0  0  0  0  0  0
   -6.1904   -0.8505    1.3257 H   0  0  0  0  0  0  0  0  0  0  0  0
   -1.5875   -2.6670   -3.6940 H   0  0  0  0  0  0  0  0  0  0  0  0
    2.1310   -3.0038   -3.9003 H   0  0  0  0  0  0  0  0  0  0  0  0
    0.5901   -3.4911   -4.6690 H   0  0  0  0  0  0  0  0  0  0  0  0
    4.3762   -1.9464    0.4770 H   0  0  0  0  0  0  0  0  0  0  0  0
    5.4089   -0.1318    1.7398 H   0  0  0  0  0  0  0  0  0  0  0  0
    6.0092    3.3891    2.9499 H   0  0  0  0  0  0  0  0  0  0  0  0
    6.6749    1.9772    2.0466 H   0  0  0  0  0  0  0  0  0  0  0  0
    5.4658    1.7253    3.3847 H   0  0  0  0  0  0  0  0  0  0  0  0
    2.7535    2.7005   -0.1329 H   0  0  0  0  0  0  0  0  0  0  0  0
    1.7272    0.8855   -1.4229 H   0  0  0  0  0  0  0  0  0  0  0  0
  1  2  1  0
  2  3  1  0
  3  4  2  0
  4  5  1  0
  5  6  2  0
  6  7  1  0
  7  8  2  0
  6  9  1  0
  9 10  2  0
 10 11  1  0
 11 12  1  0
 12 13  1  0
 12 14  2  0
 14 15  1  0
 14 16  1  0
 16 17  2  0
 16 18  1  0
 18 19  2  0
 19 20  1  0
 20 21  2  0
 21 22  1  0
 22 23  1  0
 21 24  1  0
 24 25  2  0
  8  3  1  0
 15 10  1  0
 25 18  1  0
  1 26  1  0
  1 27  1  0
  1 28  1  0
  4 29  1  0
  5 30  1  0
  7 31  1  0
  8 32  1  0
 11 33  1  0
 13 34  1  0
 13 35  1  0
 19 36  1  0
 20 37  1  0
 23 38  1  0
 23 39  1  0
 23 40  1  0
 24 41  1  0
 25 42  1  0
M  END
$$$$
