
     RDKit          3D

100106  0  0  0  0  0  0  0  0999 V2000
   -2.6505   -1.1120    0.9458 C   0  0  1  0  0  0  0  0  0  0  0  0
   -2.5479   -2.6441    0.7334 C   0  0  0  0  0  0  0  0  0  0  0  0
   -1.7902   -3.3979    1.8485 C   0  0  0  0  0  0  0  0  0  0  0  0
   -0.3091   -3.0057    2.0297 C   0  0  0  0  0  0  0  0  0  0  0  0
    0.5518   -3.0846    0.7544 C   0  0  0  0  0  0  0  0  0  0  0  0
    0.5900   -4.4720    0.0823 C   0  0  0  0  0  0  0  0  0  0  0  0
    1.0977   -5.6208    0.9755 C   0  0  0  0  0  0  0  0  0  0  0  0
    2.5192   -5.4399    1.5442 C   0  0  0  0  0  0  0  0  0  0  0  0
    3.6352   -5.5494    0.4899 C   0  0  0  0  0  0  0  0  0  0  0  0
    3.8606   -4.2621   -0.2414 C   0  0  0  0  0  0  0  0  0  0  0  0
    3.7695   -4.2324   -1.4992 O   0  0  0  0  0  0  0  0  0  0  0  0
    4.1869   -3.1079    0.4793 O   0  0  0  0  0  0  0  0  0  0  0  0
    4.4105   -1.8373   -0.1298 C   0  0  0  0  0  0  0  0  0  0  0  0
    5.7968   -1.7752   -0.7904 C   0  0  1  0  0  0  0  0  0  0  0  0
    5.9248   -0.5396   -1.4647 O   0  0  0  0  0  0  0  0  0  0  0  0
    6.9892    0.1782   -0.8768 C   0  0  1  0  0  0  0  0  0  0  0  0
    6.5991    1.5738   -0.6713 N   0  0  0  0  0  0  0  0  0  0  0  0
    5.3943    2.0547   -0.2657 C   0  0  0  0  0  0  0  0  0  0  0  0
    5.3866    3.4036   -0.0779 N   0  0  0  0  0  0  0  0  0  0  0  0
    6.6528    3.7517   -0.3757 C   0  0  0  0  0  0  0  0  0  0  0  0
    7.2567    5.0035   -0.3445 C   0  0  0  0  0  0  0  0  0  0  0  0
    6.5331    6.1793    0.0187 N   0  0  0  0  0  0  0  0  0  0  0  0
    8.5821    5.0752   -0.6712 N   0  0  0  0  0  0  0  0  0  0  0  0
    9.2953    3.9545   -1.0154 C   0  0  0  0  0  0  0  0  0  0  0  0
    8.6913    2.7281   -1.0406 N   0  0  0  0  0  0  0  0  0  0  0  0
    7.3760    2.6623   -0.7213 C   0  0  0  0  0  0  0  0  0  0  0  0
    7.3612   -0.4777    0.4474 C   0  0  2  0  0  0  0  0  0  0  0  0
    8.7375   -0.3819    0.7090 O   0  0  0  0  0  0  0  0  0  0  0  0
    6.9290   -1.9077    0.2384 C   0  0  2  0  0  0  0  0  0  0  0  0
    7.9758   -2.7124   -0.2564 O   0  0  0  0  0  0  0  0  0  0  0  0
   -3.0230   -0.3889   -0.3694 C   0  0  0  0  0  0  0  0  0  0  0  0
   -3.9222    0.7462    0.0916 C   0  0  1  0  0  0  0  0  0  0  0  0
   -4.7758    1.5070   -0.9408 C   0  0  2  0  0  0  0  0  0  0  0  0
   -3.9301    2.0773   -2.0862 C   0  0  0  0  0  0  0  0  0  0  0  0
   -4.8421    2.6957   -3.1491 C   0  0  0  0  0  0  0  0  0  0  0  0
   -5.9465    3.5569   -2.5747 C   0  0  0  0  0  0  0  0  0  0  0  0
   -6.6698    4.3692   -3.4632 C   0  0  0  0  0  0  0  0  0  0  0  0
   -7.7248    5.1641   -3.0068 C   0  0  0  0  0  0  0  0  0  0  0  0
   -8.4386    5.9732   -3.8882 O   0  0  0  0  0  0  0  0  0  0  0  0
   -8.0646    5.1518   -1.6559 C   0  0  0  0  0  0  0  0  0  0  0  0
   -7.3646    4.3429   -0.7594 C   0  0  0  0  0  0  0  0  0  0  0  0
   -6.3199    3.5027   -1.2029 C   0  0  0  0  0  0  0  0  0  0  0  0
   -5.4896    2.6847   -0.2121 C   0  0  1  0  0  0  0  0  0  0  0  0
   -6.2863    2.1883    1.0350 C   0  0  0  0  0  0  0  0  0  0  0  0
   -5.4513    1.2823    1.9768 C   0  0  0  0  0  0  0  0  0  0  0  0
   -4.7764    0.1269    1.2049 C   0  0  1  0  0  0  0  0  0  0  0  0
   -5.8660   -0.8717    0.6937 C   0  0  0  0  0  0  0  0  0  0  0  0
   -3.6970   -0.6409    2.0077 C   0  0  1  0  0  0  0  0  0  0  0  0
   -4.2366   -1.7033    2.7534 O   0  0  0  0  0  0  0  0  0  0  0  0
   -1.6555   -0.7214    1.2461 H   0  0  0  0  0  0  0  0  0  0  0  0
   -3.5671   -3.0766    0.6488 H   0  0  0  0  0  0  0  0  0  0  0  0
   -2.0525   -2.8517   -0.2382 H   0  0  0  0  0  0  0  0  0  0  0  0
   -2.3054   -3.2501    2.8194 H   0  0  0  0  0  0  0  0  0  0  0  0
   -1.8495   -4.4863    1.6350 H   0  0  0  0  0  0  0  0  0  0  0  0
    0.1353   -3.6581    2.8108 H   0  0  0  0  0  0  0  0  0  0  0  0
   -0.2448   -1.9762    2.4388 H   0  0  0  0  0  0  0  0  0  0  0  0
    0.1861   -2.3400    0.0163 H   0  0  0  0  0  0  0  0  0  0  0  0
    1.5827   -2.7653    1.0069 H   0  0  0  0  0  0  0  0  0  0  0  0
    1.2157   -4.4101   -0.8304 H   0  0  0  0  0  0  0  0  0  0  0  0
   -0.4288   -4.7321   -0.2738 H   0  0  0  0  0  0  0  0  0  0  0  0
    1.0624   -6.5638    0.3878 H   0  0  0  0  0  0  0  0  0  0  0  0
    0.3923   -5.7622    1.8213 H   0  0  0  0  0  0  0  0  0  0  0  0
    2.6040   -4.4970    2.1239 H   0  0  0  0  0  0  0  0  0  0  0  0
    2.6790   -6.2601    2.2777 H   0  0  0  0  0  0  0  0  0  0  0  0
    3.4111   -6.3702   -0.2260 H   0  0  0  0  0  0  0  0  0  0  0  0
    4.5849   -5.8118    1.0036 H   0  0  0  0  0  0  0  0  0  0  0  0
    4.3377   -1.0522    0.6527 H   0  0  0  0  0  0  0  0  0  0  0  0
    3.6168   -1.6335   -0.8818 H   0  0  0  0  0  0  0  0  0  0  0  0
    5.8658   -2.5924   -1.5408 H   0  0  0  0  0  0  0  0  0  0  0  0
    7.8546    0.1363   -1.5763 H   0  0  0  0  0  0  0  0  0  0  0  0
    4.5272    1.4305   -0.0938 H   0  0  0  0  0  0  0  0  0  0  0  0
    5.5208    6.1316    0.2705 H   0  0  0  0  0  0  0  0  0  0  0  0
    7.0133    7.1062    0.0356 H   0  0  0  0  0  0  0  0  0  0  0  0
   10.3432    4.0417   -1.2670 H   0  0  0  0  0  0  0  0  0  0  0  0
    6.7709   -0.0405    1.2879 H   0  0  0  0  0  0  0  0  0  0  0  0
    8.9019    0.5510    1.0052 H   0  0  0  0  0  0  0  0  0  0  0  0
    6.5806   -2.3466    1.1993 H   0  0  0  0  0  0  0  0  0  0  0  0
    8.2760   -2.3348   -1.1249 H   0  0  0  0  0  0  0  0  0  0  0  0
   -2.1136   -0.0012   -0.8788 H   0  0  0  0  0  0  0  0  0  0  0  0
   -3.5713   -1.0517   -1.0742 H   0  0  0  0  0  0  0  0  0  0  0  0
   -3.2335    1.5014    0.5472 H   0  0  0  0  0  0  0  0  0  0  0  0
   -5.5242    0.8228   -1.3928 H   0  0  0  0  0  0  0  0  0  0  0  0
   -3.3332    1.2726   -2.5662 H   0  0  0  0  0  0  0  0  0  0  0  0
   -3.2236    2.8461   -1.7015 H   0  0  0  0  0  0  0  0  0  0  0  0
   -5.3108    1.8786   -3.7400 H   0  0  0  0  0  0  0  0  0  0  0  0
   -4.2173    3.2992   -3.8432 H   0  0  0  0  0  0  0  0  0  0  0  0
   -6.4099    4.3850   -4.5150 H   0  0  0  0  0  0  0  0  0  0  0  0
   -8.2158    6.0062   -4.8762 H   0  0  0  0  0  0  0  0  0  0  0  0
   -8.8708    5.7786   -1.2961 H   0  0  0  0  0  0  0  0  0  0  0  0
   -7.6499    4.3927    0.2798 H   0  0  0  0  0  0  0  0  0  0  0  0
   -4.7068    3.3765    0.1741 H   0  0  0  0  0  0  0  0  0  0  0  0
   -7.2099    1.6642    0.7117 H   0  0  0  0  0  0  0  0  0  0  0  0
   -6.6016    3.0580    1.6473 H   0  0  0  0  0  0  0  0  0  0  0  0
   -4.6788    1.9090    2.4754 H   0  0  0  0  0  0  0  0  0  0  0  0
   -6.1083    0.8753    2.7760 H   0  0  0  0  0  0  0  0  0  0  0  0
   -6.6216   -0.3976    0.0407 H   0  0  0  0  0  0  0  0  0  0  0  0
   -6.4262   -1.2988    1.5523 H   0  0  0  0  0  0  0  0  0  0  0  0
   -5.4245   -1.7159    0.1292 H   0  0  0  0  0  0  0  0  0  0  0  0
   -3.1767    0.0616    2.7026 H   0  0  0  0  0  0  0  0  0  0  0  0
   -4.7105   -1.2957    3.5244 H   0  0  0  0  0  0  0  0  0  0  0  0
  1  2  1  0
  2  3  1  0
  3  4  1  0
  4  5  1  0
  5  6  1  0
  6  7  1  0
  7  8  1  0
  8  9  1  0
  9 10  1  0
 10 11  2  0
 10 12  1  0
 12 13  1  0
 13 14  1  0
 14 15  1  0
 15 16  1  0
 16 17  1  0
 17 18  1  0
 18 19  2  0
 19 20  1  0
 20 21  2  0
 21 22  1  0
 21 23  1  0
 23 24  2  0
 24 25  1  0
 25 26  2  0
 16 27  1  0
 27 28  1  0
 27 29  1  0
 29 30  1  0
  1 31  1  0
 31 32  1  0
 32 33  1  0
 33 34  1  0
 34 35  1  0
 35 36  1  0
 36 37  2  0
 37 38  1  0
 38 39  1  0
 38 40  2  0
 40 41  1  0
 41 42  2  0
 42 43  1  0
 43 44  1  0
 44 45  1  0
 45 46  1  0
 46 47  1  6
 46 48  1  0
 48 49  1  0
 48  1  1  0
 29 14  1  0
 46 32  1  0
 26 17  1  0
 43 33  1  0
 26 20  1  0
 42 36  1  0
  1 50  1  1
  2 51  1  0
  2 52  1  0
  3 53  1  0
  3 54  1  0
  4 55  1  0
  4 56  1  0
  5 57  1  0
  5 58  1  0
  6 59  1  0
  6 60  1  0
  7 61  1  0
  7 62  1  0
  8 63  1  0
  8 64  1  0
  9 65  1  0
  9 66  1  0
 13 67  1  0
 13 68  1  0
 14 69  1  6
 16 70  1  6
 18 71  1  0
 22 72  1  0
 22 73  1  0
 24 74  1  0
 27 75  1  1
 28 76  1  0
 29 77  1  1
 30 78  1  0
 31 79  1  0
 31 80  1  0
 32 81  1  1
 33 82  1  6
 34 83  1  0
 34 84  1  0
 35 85  1  0
 35 86  1  0
 37 87  1  0
 39 88  1  0
 40 89  1  0
 41 90  1  0
 43 91  1  1
 44 92  1  0
 44 93  1  0
 45 94  1  0
 45 95  1  0
 47 96  1  0
 47 97  1  0
 47 98  1  0
 48 99  1  1
 49100  1  0
M  END
$$$$
