
     RDKit          3D

 30 32  0  0  0  0  0  0  0  0999 V2000
   -2.6350   -2.2149   -0.5860 C   0  0  0  0  0  0  0  0  0  0  0  0
   -2.3300   -1.1202    0.3862 C   0  0  0  0  0  0  0  0  0  0  0  0
   -3.1589   -0.8585    1.2981 O   0  0  0  0  0  0  0  0  0  0  0  0
   -1.1421   -0.3249    0.2539 N   0  0  0  0  0  0  0  0  0  0  0  0
   -1.0877    1.0224    0.1346 C   0  0  0  0  0  0  0  0  0  0  0  0
   -2.1523    1.9297    0.1173 C   0  0  0  0  0  0  0  0  0  0  0  0
   -1.8558    3.2942   -0.0542 C   0  0  0  0  0  0  0  0  0  0  0  0
   -0.5202    3.7238   -0.2129 C   0  0  0  0  0  0  0  0  0  0  0  0
    0.5338    2.7935   -0.2038 C   0  0  0  0  0  0  0  0  0  0  0  0
    0.2119    1.4490   -0.0273 C   0  0  0  0  0  0  0  0  0  0  0  0
    1.0071    0.3250    0.0109 C   0  0  0  0  0  0  0  0  0  0  0  0
    0.1483   -0.7462    0.1722 C   0  0  0  0  0  0  0  0  0  0  0  0
    0.6738   -2.1144    0.3175 C   0  0  0  0  0  0  0  0  0  0  0  0
   -0.0705   -3.0755    0.6448 O   0  0  0  0  0  0  0  0  0  0  0  0
    2.1403   -2.3440    0.0536 C   0  0  0  0  0  0  0  0  0  0  0  0
    2.9863   -1.1218    0.4761 C   0  0  0  0  0  0  0  0  0  0  0  0
    2.4908    0.1910   -0.1662 C   0  0  0  0  0  0  0  0  0  0  0  0
   -1.8399   -2.2883   -1.3573 H   0  0  0  0  0  0  0  0  0  0  0  0
   -2.7168   -3.1825   -0.0486 H   0  0  0  0  0  0  0  0  0  0  0  0
   -3.5987   -2.0003   -1.0931 H   0  0  0  0  0  0  0  0  0  0  0  0
   -3.1773    1.6014    0.2253 H   0  0  0  0  0  0  0  0  0  0  0  0
   -2.6585    4.0198   -0.0696 H   0  0  0  0  0  0  0  0  0  0  0  0
   -0.3064    4.7761   -0.3474 H   0  0  0  0  0  0  0  0  0  0  0  0
    1.5594    3.1143   -0.3328 H   0  0  0  0  0  0  0  0  0  0  0  0
    2.4884   -3.2384    0.6141 H   0  0  0  0  0  0  0  0  0  0  0  0
    2.2832   -2.5357   -1.0314 H   0  0  0  0  0  0  0  0  0  0  0  0
    2.9481   -1.0213    1.5833 H   0  0  0  0  0  0  0  0  0  0  0  0
    4.0462   -1.2921    0.1892 H   0  0  0  0  0  0  0  0  0  0  0  0
    2.7239    0.1861   -1.2524 H   0  0  0  0  0  0  0  0  0  0  0  0
    3.0087    1.0527    0.3060 H   0  0  0  0  0  0  0  0  0  0  0  0
  1  2  1  0
  2  3  2  0
  2  4  1  0
  4  5  1  0
  5  6  2  0
  6  7  1  0
  7  8  2  0
  8  9  1  0
  9 10  2  0
 10 11  1  0
 11 12  2  0
 12 13  1  0
 13 14  2  0
 13 15  1  0
 15 16  1  0
 16 17  1  0
 12  4  1  0
 10  5  1  0
 17 11  1  0
  1 18  1  0
  1 19  1  0
  1 20  1  0
  6 21  1  0
  7 22  1  0
  8 23  1  0
  9 24  1  0
 15 25  1  0
 15 26  1  0
 16 27  1  0
 16 28  1  0
 17 29  1  0
 17 30  1  0
M  END
$$$$
