
     RDKit          3D

 38 40  0  0  0  0  0  0  0  0999 V2000
   -5.6151   -0.9024    1.1546 O   0  0  0  0  0  0  0  0  0  0  0  0
   -4.4774   -1.0262    0.6229 C   0  0  0  0  0  0  0  0  0  0  0  0
   -4.1077   -2.2339    0.1165 N   0  0  0  0  0  0  0  0  0  0  0  0
   -2.8959   -2.4224   -0.4662 C   0  0  0  0  0  0  0  0  0  0  0  0
   -1.9863   -1.3708   -0.5630 C   0  0  0  0  0  0  0  0  0  0  0  0
   -2.3195   -0.1012   -0.0538 C   0  0  0  0  0  0  0  0  0  0  0  0
   -1.4259    1.0014   -0.1261 C   0  0  0  0  0  0  0  0  0  0  0  0
   -1.8188    2.2401    0.4045 C   0  0  0  0  0  0  0  0  0  0  0  0
   -3.0705    2.3997    0.9945 C   0  0  0  0  0  0  0  0  0  0  0  0
   -3.9546    1.3268    1.0696 C   0  0  0  0  0  0  0  0  0  0  0  0
   -3.5938    0.0710    0.5513 C   0  0  0  0  0  0  0  0  0  0  0  0
    0.1891    0.8662   -0.8467 S   0  0  0  0  0  6  0  0  0  0  0  0
    0.0449    0.4656   -2.2890 O   0  0  0  0  0  0  0  0  0  0  0  0
    0.8866    2.1971   -0.7909 O   0  0  0  0  0  0  0  0  0  0  0  0
    1.1008   -0.3365    0.0417 N   0  0  0  0  0  0  0  0  0  0  0  0
    1.5336    0.1159    1.3769 C   0  0  0  0  0  0  0  0  0  0  0  0
    2.8629    0.8936    1.3951 C   0  0  0  0  0  0  0  0  0  0  0  0
    4.0706   -0.0126    1.1046 C   0  0  0  0  0  0  0  0  0  0  0  0
    4.4039   -0.1194   -0.3261 N   0  0  0  0  0  0  0  0  0  0  0  0
    3.2627   -0.1837   -1.2551 C   0  0  0  0  0  0  0  0  0  0  0  0
    2.1001   -1.0686   -0.7597 C   0  0  0  0  0  0  0  0  0  0  0  0
   -4.7685   -3.0417    0.1739 H   0  0  0  0  0  0  0  0  0  0  0  0
   -2.6327   -3.3962   -0.8599 H   0  0  0  0  0  0  0  0  0  0  0  0
   -1.0366   -1.5691   -1.0366 H   0  0  0  0  0  0  0  0  0  0  0  0
   -1.1546    3.0932    0.3669 H   0  0  0  0  0  0  0  0  0  0  0  0
   -3.3566    3.3624    1.3983 H   0  0  0  0  0  0  0  0  0  0  0  0
   -4.9200    1.4826    1.5353 H   0  0  0  0  0  0  0  0  0  0  0  0
    0.7439    0.7560    1.8275 H   0  0  0  0  0  0  0  0  0  0  0  0
    1.6143   -0.7697    2.0436 H   0  0  0  0  0  0  0  0  0  0  0  0
    2.8443    1.7650    0.7104 H   0  0  0  0  0  0  0  0  0  0  0  0
    2.9866    1.3055    2.4205 H   0  0  0  0  0  0  0  0  0  0  0  0
    3.9200   -1.0235    1.5458 H   0  0  0  0  0  0  0  0  0  0  0  0
    4.9551    0.4195    1.6203 H   0  0  0  0  0  0  0  0  0  0  0  0
    4.9863   -0.9800   -0.4562 H   0  0  0  0  0  0  0  0  0  0  0  0
    3.6248   -0.6012   -2.2207 H   0  0  0  0  0  0  0  0  0  0  0  0
    2.9253    0.8431   -1.4935 H   0  0  0  0  0  0  0  0  0  0  0  0
    2.4890   -1.9337   -0.1809 H   0  0  0  0  0  0  0  0  0  0  0  0
    1.5898   -1.5121   -1.6416 H   0  0  0  0  0  0  0  0  0  0  0  0
  1  2  2  0
  2  3  1  0
  3  4  1  0
  4  5  2  0
  5  6  1  0
  6  7  2  0
  7  8  1  0
  8  9  2  0
  9 10  1  0
 10 11  2  0
  7 12  1  0
 12 13  2  0
 12 14  2  0
 12 15  1  0
 15 16  1  0
 16 17  1  0
 17 18  1  0
 18 19  1  0
 19 20  1  0
 20 21  1  0
 11  2  1  0
 21 15  1  0
 11  6  1  0
  3 22  1  0
  4 23  1  0
  5 24  1  0
  8 25  1  0
  9 26  1  0
 10 27  1  0
 16 28  1  0
 16 29  1  0
 17 30  1  0
 17 31  1  0
 18 32  1  0
 18 33  1  0
 19 34  1  0
 20 35  1  0
 20 36  1  0
 21 37  1  0
 21 38  1  0
M  END
$$$$
