
     RDKit          3D

 46 47  0  0  0  0  0  0  0  0999 V2000
    7.3173   -0.3972    0.3242 C   0  0  0  0  0  0  0  0  0  0  0  0
    5.9879   -0.4947    1.0724 C   0  0  0  0  0  0  0  0  0  0  0  0
    4.7740   -0.5260    0.1305 C   0  0  0  0  0  0  0  0  0  0  0  0
    4.4944    0.8423   -0.5152 C   0  0  0  0  0  0  0  0  0  0  0  0
    3.2878    0.8108   -1.4676 C   0  0  0  0  0  0  0  0  0  0  0  0
    1.9459    0.7293   -0.7238 C   0  0  0  0  0  0  0  0  0  0  0  0
    0.7684    0.8216   -1.7062 C   0  0  0  0  0  0  0  0  0  0  0  0
   -0.5937    0.8652   -0.9958 C   0  0  0  0  0  0  0  0  0  0  0  0
   -0.9810   -0.4833   -0.3731 C   0  0  0  0  0  0  0  0  0  0  0  0
   -2.3808   -0.4213    0.1891 C   0  0  0  0  0  0  0  0  0  0  0  0
   -3.4687   -0.6553   -0.6094 N   0  0  0  0  0  4  0  0  0  0  0  0
   -3.2714   -0.9762   -1.9363 O   0  0  0  0  0  1  0  0  0  0  0  0
   -4.7444   -0.5723   -0.1143 C   0  0  0  0  0  0  0  0  0  0  0  0
   -5.8587   -0.8252   -0.9389 C   0  0  0  0  0  0  0  0  0  0  0  0
   -7.1547   -0.7379   -0.4255 C   0  0  0  0  0  0  0  0  0  0  0  0
   -7.3591   -0.3978    0.9118 C   0  0  0  0  0  0  0  0  0  0  0  0
   -6.2690   -0.1418    1.7455 C   0  0  0  0  0  0  0  0  0  0  0  0
   -4.9572   -0.2256    1.2442 C   0  0  0  0  0  0  0  0  0  0  0  0
   -3.8486    0.0330    2.0640 C   0  0  0  0  0  0  0  0  0  0  0  0
   -4.0226    0.3847    3.4033 O   0  0  0  0  0  0  0  0  0  0  0  0
   -2.5622   -0.0613    1.5310 C   0  0  0  0  0  0  0  0  0  0  0  0
    7.3990   -1.2071   -0.4316 H   0  0  0  0  0  0  0  0  0  0  0  0
    8.1545   -0.5034    1.0459 H   0  0  0  0  0  0  0  0  0  0  0  0
    7.4180    0.5878   -0.1760 H   0  0  0  0  0  0  0  0  0  0  0  0
    5.9942   -1.4339    1.6672 H   0  0  0  0  0  0  0  0  0  0  0  0
    5.8980    0.3531    1.7860 H   0  0  0  0  0  0  0  0  0  0  0  0
    3.8938   -0.8332    0.7330 H   0  0  0  0  0  0  0  0  0  0  0  0
    4.9289   -1.2952   -0.6576 H   0  0  0  0  0  0  0  0  0  0  0  0
    5.3797    1.1517   -1.1095 H   0  0  0  0  0  0  0  0  0  0  0  0
    4.3328    1.6099    0.2731 H   0  0  0  0  0  0  0  0  0  0  0  0
    3.3055    1.7450   -2.0710 H   0  0  0  0  0  0  0  0  0  0  0  0
    3.3842   -0.0451   -2.1713 H   0  0  0  0  0  0  0  0  0  0  0  0
    1.8797    1.5622    0.0101 H   0  0  0  0  0  0  0  0  0  0  0  0
    1.8888   -0.2333   -0.1769 H   0  0  0  0  0  0  0  0  0  0  0  0
    0.8713    1.7542   -2.3033 H   0  0  0  0  0  0  0  0  0  0  0  0
    0.7973   -0.0357   -2.4143 H   0  0  0  0  0  0  0  0  0  0  0  0
   -0.5859    1.6550   -0.2125 H   0  0  0  0  0  0  0  0  0  0  0  0
   -1.3628    1.1474   -1.7481 H   0  0  0  0  0  0  0  0  0  0  0  0
   -0.9153   -1.2889   -1.1355 H   0  0  0  0  0  0  0  0  0  0  0  0
   -0.2682   -0.7473    0.4369 H   0  0  0  0  0  0  0  0  0  0  0  0
   -5.7331   -1.0917   -1.9804 H   0  0  0  0  0  0  0  0  0  0  0  0
   -8.0038   -0.9348   -1.0673 H   0  0  0  0  0  0  0  0  0  0  0  0
   -8.3659   -0.3317    1.3037 H   0  0  0  0  0  0  0  0  0  0  0  0
   -6.4559    0.1214    2.7793 H   0  0  0  0  0  0  0  0  0  0  0  0
   -3.2337    0.5756    4.0100 H   0  0  0  0  0  0  0  0  0  0  0  0
   -1.7051    0.1470    2.1602 H   0  0  0  0  0  0  0  0  0  0  0  0
  1  2  1  0
  2  3  1  0
  3  4  1  0
  4  5  1  0
  5  6  1  0
  6  7  1  0
  7  8  1  0
  8  9  1  0
  9 10  1  0
 10 11  2  0
 11 12  1  0
 11 13  1  0
 13 14  2  0
 14 15  1  0
 15 16  2  0
 16 17  1  0
 17 18  2  0
 18 19  1  0
 19 20  1  0
 19 21  2  0
 21 10  1  0
 18 13  1  0
  1 22  1  0
  1 23  1  0
  1 24  1  0
  2 25  1  0
  2 26  1  0
  3 27  1  0
  3 28  1  0
  4 29  1  0
  4 30  1  0
  5 31  1  0
  5 32  1  0
  6 33  1  0
  6 34  1  0
  7 35  1  0
  7 36  1  0
  8 37  1  0
  8 38  1  0
  9 39  1  0
  9 40  1  0
 14 41  1  0
 15 42  1  0
 16 43  1  0
 17 44  1  0
 20 45  1  0
 21 46  1  0
M  CHG  2  11   1  12  -1
M  END
$$$$
