
     RDKit          3D

 50 53  0  0  0  0  0  0  0  0999 V2000
   -5.6957   -0.3730   -1.2152 C   0  0  1  0  0  0  0  0  0  0  0  0
   -6.8587    0.5197   -1.2621 N   0  0  0  0  0  0  0  0  0  0  0  0
   -4.3727    0.3760   -1.4858 C   0  0  0  0  0  0  0  0  0  0  0  0
   -3.9400    1.2597   -0.3072 C   0  0  0  0  0  0  0  0  0  0  0  0
   -3.8554    0.4643    1.0094 C   0  0  1  0  0  0  0  0  0  0  0  0
   -5.1854   -0.2634    1.2941 C   0  0  0  0  0  0  0  0  0  0  0  0
   -5.6474   -1.1409    0.1181 C   0  0  0  0  0  0  0  0  0  0  0  0
   -2.7274   -0.4776    0.9815 N   0  0  0  0  0  0  0  0  0  0  0  0
   -1.3609   -0.0478    1.0864 C   0  0  0  0  0  0  0  0  0  0  0  0
   -1.0659    1.2710    1.3009 N   0  0  0  0  0  0  0  0  0  0  0  0
    0.2309    1.6479    1.4014 C   0  0  0  0  0  0  0  0  0  0  0  0
    0.6671    2.8924    1.6562 N   0  0  0  0  0  0  0  0  0  0  0  0
    2.0110    2.6905    1.7014 C   0  0  0  0  0  0  0  0  0  0  0  0
    2.3649    1.3989    1.4925 N   0  0  0  0  0  0  0  0  0  0  0  0
    1.2249    0.7671    1.2958 N   0  0  0  0  0  0  0  0  0  0  0  0
    1.0149   -0.5572    1.0734 C   0  0  0  0  0  0  0  0  0  0  0  0
    2.0989   -1.4951    0.9878 N   0  0  0  0  0  0  0  0  0  0  0  0
    3.3324   -1.2355    0.2972 C   0  0  0  0  0  0  0  0  0  0  0  0
    4.4937   -1.9236    0.6773 C   0  0  0  0  0  0  0  0  0  0  0  0
    5.6998   -1.7025    0.0059 C   0  0  0  0  0  0  0  0  0  0  0  0
    5.7547   -0.8046   -1.0680 C   0  0  0  0  0  0  0  0  0  0  0  0
    4.5945   -0.1254   -1.4615 C   0  0  0  0  0  0  0  0  0  0  0  0
    3.3881   -0.3458   -0.7909 C   0  0  0  0  0  0  0  0  0  0  0  0
    7.2778   -0.5119   -1.9020 S   0  0  0  0  0  6  0  0  0  0  0  0
    8.1092    0.8022   -1.1474 N   0  0  0  0  0  0  0  0  0  0  0  0
    8.1348   -1.7454   -1.8457 O   0  0  0  0  0  0  0  0  0  0  0  0
    7.0124   -0.1761   -3.3428 O   0  0  0  0  0  0  0  0  0  0  0  0
   -0.3162   -0.9952    0.9827 C   0  0  0  0  0  0  0  0  0  0  0  0
   -5.8229   -1.1275   -2.0235 H   0  0  0  0  0  0  0  0  0  0  0  0
   -6.9107    0.9540   -2.2122 H   0  0  0  0  0  0  0  0  0  0  0  0
   -6.7532    1.2951   -0.5710 H   0  0  0  0  0  0  0  0  0  0  0  0
   -4.4743    1.0037   -2.3974 H   0  0  0  0  0  0  0  0  0  0  0  0
   -3.5718   -0.3686   -1.6892 H   0  0  0  0  0  0  0  0  0  0  0  0
   -2.9546    1.7141   -0.5429 H   0  0  0  0  0  0  0  0  0  0  0  0
   -4.6531    2.1023   -0.1845 H   0  0  0  0  0  0  0  0  0  0  0  0
   -3.6927    1.1831    1.8429 H   0  0  0  0  0  0  0  0  0  0  0  0
   -5.9715    0.4884    1.5227 H   0  0  0  0  0  0  0  0  0  0  0  0
   -5.0728   -0.8981    2.1999 H   0  0  0  0  0  0  0  0  0  0  0  0
   -4.9625   -2.0090    0.0103 H   0  0  0  0  0  0  0  0  0  0  0  0
   -6.6545   -1.5532    0.3453 H   0  0  0  0  0  0  0  0  0  0  0  0
   -2.9142   -1.5050    0.9424 H   0  0  0  0  0  0  0  0  0  0  0  0
    2.7255    3.4796    1.8930 H   0  0  0  0  0  0  0  0  0  0  0  0
    1.9597   -2.4411    1.4102 H   0  0  0  0  0  0  0  0  0  0  0  0
    4.4657   -2.6231    1.5033 H   0  0  0  0  0  0  0  0  0  0  0  0
    6.5893   -2.2305    0.3251 H   0  0  0  0  0  0  0  0  0  0  0  0
    4.6220    0.5724   -2.2887 H   0  0  0  0  0  0  0  0  0  0  0  0
    2.4987    0.1713   -1.1271 H   0  0  0  0  0  0  0  0  0  0  0  0
    7.4649    1.6242   -1.1707 H   0  0  0  0  0  0  0  0  0  0  0  0
    8.2346    0.5467   -0.1423 H   0  0  0  0  0  0  0  0  0  0  0  0
   -0.5360   -2.0432    0.8210 H   0  0  0  0  0  0  0  0  0  0  0  0
  1  2  1  0
  1  3  1  0
  3  4  1  0
  4  5  1  0
  5  6  1  0
  6  7  1  0
  5  8  1  0
  8  9  1  0
  9 10  2  0
 10 11  1  0
 11 12  2  0
 12 13  1  0
 13 14  2  0
 14 15  1  0
 15 16  1  0
 16 17  1  0
 17 18  1  0
 18 19  2  0
 19 20  1  0
 20 21  2  0
 21 22  1  0
 22 23  2  0
 21 24  1  0
 24 25  1  0
 24 26  2  0
 24 27  2  0
 16 28  2  0
  7  1  1  0
 28  9  1  0
 15 11  1  0
 23 18  1  0
  1 29  1  6
  2 30  1  0
  2 31  1  0
  3 32  1  0
  3 33  1  0
  4 34  1  0
  4 35  1  0
  5 36  1  1
  6 37  1  0
  6 38  1  0
  7 39  1  0
  7 40  1  0
  8 41  1  0
 13 42  1  0
 17 43  1  0
 19 44  1  0
 20 45  1  0
 22 46  1  0
 23 47  1  0
 25 48  1  0
 25 49  1  0
 28 50  1  0
M  END
$$$$
