
     RDKit          3D

 51 54  0  0  0  0  0  0  0  0999 V2000
    2.9980   -1.2714    1.0676 O   0  0  0  0  0  0  0  0  0  0  0  0
    3.4409   -1.4259   -0.2551 C   0  0  1  0  0  0  0  0  0  0  0  0
    2.2631   -1.7159   -1.2103 C   0  0  0  0  0  0  0  0  0  0  0  0
    1.1566   -0.6403   -1.2448 C   0  0  0  0  0  0  0  0  0  0  0  0
    0.1232   -0.7868   -0.0988 C   0  0  2  0  0  0  0  0  0  0  0  0
   -1.1903   -0.2558   -0.4232 C   0  0  2  0  0  0  0  0  0  0  0  0
   -1.1229    0.7721    0.5976 N   0  0  0  0  0  0  0  0  0  0  0  0
    0.2297    0.2822    0.9557 C   0  0  0  0  0  0  0  0  0  0  0  0
    1.0894    0.6103    1.8134 O   0  0  0  0  0  0  0  0  0  0  0  0
   -1.9827    1.8254    1.0474 C   0  0  0  0  0  0  0  0  0  0  0  0
   -1.5982    2.6447    2.1195 C   0  0  0  0  0  0  0  0  0  0  0  0
   -2.4422    3.6692    2.5600 C   0  0  0  0  0  0  0  0  0  0  0  0
   -3.6736    3.8811    1.9328 C   0  0  0  0  0  0  0  0  0  0  0  0
   -4.4909    4.8744    2.3612 F   0  0  0  0  0  0  0  0  0  0  0  0
   -4.0616    3.0685    0.8635 C   0  0  0  0  0  0  0  0  0  0  0  0
   -3.2194    2.0438    0.4208 C   0  0  0  0  0  0  0  0  0  0  0  0
   -2.3230   -1.2359   -0.1801 C   0  0  0  0  0  0  0  0  0  0  0  0
   -2.9960   -1.7958   -1.2781 C   0  0  0  0  0  0  0  0  0  0  0  0
   -4.0316   -2.7141   -1.0811 C   0  0  0  0  0  0  0  0  0  0  0  0
   -4.4012   -3.0918    0.2132 C   0  0  0  0  0  0  0  0  0  0  0  0
   -5.4356   -4.0069    0.3940 O   0  0  0  0  0  0  0  0  0  0  0  0
   -3.7267   -2.5490    1.3145 C   0  0  0  0  0  0  0  0  0  0  0  0
   -2.6906   -1.6310    1.1210 C   0  0  0  0  0  0  0  0  0  0  0  0
    4.2445   -0.2222   -0.7070 C   0  0  0  0  0  0  0  0  0  0  0  0
    4.0571    1.0510   -0.1345 C   0  0  0  0  0  0  0  0  0  0  0  0
    4.7911    2.1489   -0.5936 C   0  0  0  0  0  0  0  0  0  0  0  0
    5.7145    1.9916   -1.6299 C   0  0  0  0  0  0  0  0  0  0  0  0
    6.4241    3.0581   -2.0739 F   0  0  0  0  0  0  0  0  0  0  0  0
    5.9035    0.7354   -2.2109 C   0  0  0  0  0  0  0  0  0  0  0  0
    5.1714   -0.3651   -1.7556 C   0  0  0  0  0  0  0  0  0  0  0  0
    2.6877   -2.1633    1.3746 H   0  0  0  0  0  0  0  0  0  0  0  0
    4.1225   -2.3085   -0.2897 H   0  0  0  0  0  0  0  0  0  0  0  0
    2.6738   -1.8247   -2.2386 H   0  0  0  0  0  0  0  0  0  0  0  0
    1.8198   -2.7036   -0.9570 H   0  0  0  0  0  0  0  0  0  0  0  0
    1.5898    0.3822   -1.2745 H   0  0  0  0  0  0  0  0  0  0  0  0
    0.6289   -0.7801   -2.2144 H   0  0  0  0  0  0  0  0  0  0  0  0
    0.1018   -1.8011    0.3602 H   0  0  0  0  0  0  0  0  0  0  0  0
   -1.2639    0.2266   -1.4253 H   0  0  0  0  0  0  0  0  0  0  0  0
   -0.6493    2.4911    2.6157 H   0  0  0  0  0  0  0  0  0  0  0  0
   -2.1409    4.2978    3.3880 H   0  0  0  0  0  0  0  0  0  0  0  0
   -5.0144    3.2319    0.3767 H   0  0  0  0  0  0  0  0  0  0  0  0
   -3.5311    1.4232   -0.4094 H   0  0  0  0  0  0  0  0  0  0  0  0
   -2.7200   -1.5203   -2.2884 H   0  0  0  0  0  0  0  0  0  0  0  0
   -4.5462   -3.1345   -1.9358 H   0  0  0  0  0  0  0  0  0  0  0  0
   -5.7264   -4.3013    1.3191 H   0  0  0  0  0  0  0  0  0  0  0  0
   -4.0022   -2.8401    2.3201 H   0  0  0  0  0  0  0  0  0  0  0  0
   -2.1760   -1.2311    1.9854 H   0  0  0  0  0  0  0  0  0  0  0  0
    3.3443    1.2011    0.6633 H   0  0  0  0  0  0  0  0  0  0  0  0
    4.6408    3.1230   -0.1461 H   0  0  0  0  0  0  0  0  0  0  0  0
    6.6156    0.6134   -3.0170 H   0  0  0  0  0  0  0  0  0  0  0  0
    5.3251   -1.3302   -2.2224 H   0  0  0  0  0  0  0  0  0  0  0  0
  1  2  1  0
  2  3  1  0
  3  4  1  0
  4  5  1  0
  5  6  1  0
  6  7  1  0
  7  8  1  0
  8  9  2  0
  7 10  1  0
 10 11  2  0
 11 12  1  0
 12 13  2  0
 13 14  1  0
 13 15  1  0
 15 16  2  0
  6 17  1  0
 17 18  2  0
 18 19  1  0
 19 20  2  0
 20 21  1  0
 20 22  1  0
 22 23  2  0
  2 24  1  0
 24 25  2  0
 25 26  1  0
 26 27  2  0
 27 28  1  0
 27 29  1  0
 29 30  2  0
  8  5  1  0
 16 10  1  0
 23 17  1  0
 30 24  1  0
  1 31  1  0
  2 32  1  1
  3 33  1  0
  3 34  1  0
  4 35  1  0
  4 36  1  0
  5 37  1  1
  6 38  1  6
 11 39  1  0
 12 40  1  0
 15 41  1  0
 16 42  1  0
 18 43  1  0
 19 44  1  0
 21 45  1  0
 22 46  1  0
 23 47  1  0
 25 48  1  0
 26 49  1  0
 29 50  1  0
 30 51  1  0
M  END
$$$$
