
     RDKit          3D

 55 57  0  0  0  0  0  0  0  0999 V2000
    0.2099    0.4541    0.3413 C   0  0  1  0  0  0  0  0  0  0  0  0
    0.8526    0.6832   -1.0390 C   0  0  0  0  0  0  0  0  0  0  0  0
    2.2663    0.2435   -1.0619 N   0  0  0  0  0  0  0  0  0  0  0  0
    2.7041    0.0330   -2.4521 C   0  0  0  0  0  0  0  0  0  0  0  0
    3.1689    1.1908   -0.3591 C   0  0  0  0  0  0  0  0  0  0  0  0
    3.8052    0.5160    0.8652 C   0  0  0  0  0  0  0  0  0  0  0  0
    4.6758   -0.7068    0.5218 C   0  0  0  0  0  0  0  0  0  0  0  0
    5.9943   -0.3433   -0.1691 C   0  0  0  0  0  0  0  0  0  0  0  0
    6.7690    0.4724    0.6745 O   0  0  0  0  0  0  0  0  0  0  0  0
    7.9068    0.7523   -0.0112 N   0  0  0  0  0  0  0  0  0  0  0  0
   -1.1181    0.9364    0.3027 O   0  0  0  0  0  0  0  0  0  0  0  0
   -1.9697   -0.0697    0.8066 C   0  0  1  0  0  0  0  0  0  0  0  0
   -3.2968    0.0299    0.1628 N   0  0  0  0  0  0  0  0  0  0  0  0
   -4.0525    1.1620    0.0120 C   0  0  0  0  0  0  0  0  0  0  0  0
   -3.6410    2.5050    0.4761 C   0  0  0  0  0  0  0  0  0  0  0  0
   -4.3517    3.5965    0.1997 C   0  0  0  0  0  0  0  0  0  0  0  0
   -5.2758    0.9322   -0.5425 N   0  0  0  0  0  0  0  0  0  0  0  0
   -5.2823   -0.3977   -0.7181 C   0  0  0  0  0  0  0  0  0  0  0  0
   -6.2987   -1.2119   -1.2061 C   0  0  0  0  0  0  0  0  0  0  0  0
   -7.5391   -0.6735   -1.6640 N   0  0  0  0  0  0  0  0  0  0  0  0
   -6.0777   -2.5595   -1.2245 N   0  0  0  0  0  0  0  0  0  0  0  0
   -4.8991   -3.0931   -0.7720 C   0  0  0  0  0  0  0  0  0  0  0  0
   -3.9112   -2.2808   -0.2907 N   0  0  0  0  0  0  0  0  0  0  0  0
   -4.1209   -0.9406   -0.2844 C   0  0  0  0  0  0  0  0  0  0  0  0
   -1.2671   -1.4036    0.5821 C   0  0  2  0  0  0  0  0  0  0  0  0
   -1.6717   -2.3588    1.5290 O   0  0  0  0  0  0  0  0  0  0  0  0
    0.1912   -1.0341    0.7292 C   0  0  2  0  0  0  0  0  0  0  0  0
    0.6608   -1.2288    2.0443 O   0  0  0  0  0  0  0  0  0  0  0  0
    0.7657    1.0462    1.0995 H   0  0  0  0  0  0  0  0  0  0  0  0
    0.7692    1.7570   -1.3229 H   0  0  0  0  0  0  0  0  0  0  0  0
    0.2530    0.1090   -1.7823 H   0  0  0  0  0  0  0  0  0  0  0  0
    3.7550   -0.3254   -2.4755 H   0  0  0  0  0  0  0  0  0  0  0  0
    2.6251    0.9736   -3.0415 H   0  0  0  0  0  0  0  0  0  0  0  0
    2.0862   -0.7547   -2.9344 H   0  0  0  0  0  0  0  0  0  0  0  0
    3.9723    1.5861   -1.0200 H   0  0  0  0  0  0  0  0  0  0  0  0
    2.6261    2.0945   -0.0019 H   0  0  0  0  0  0  0  0  0  0  0  0
    2.9968    0.1862    1.5508 H   0  0  0  0  0  0  0  0  0  0  0  0
    4.4096    1.2648    1.4213 H   0  0  0  0  0  0  0  0  0  0  0  0
    4.1057   -1.4152   -0.1167 H   0  0  0  0  0  0  0  0  0  0  0  0
    4.9141   -1.2433    1.4661 H   0  0  0  0  0  0  0  0  0  0  0  0
    5.7876    0.1701   -1.1340 H   0  0  0  0  0  0  0  0  0  0  0  0
    6.5399   -1.2898   -0.3870 H   0  0  0  0  0  0  0  0  0  0  0  0
    7.9657    1.7930   -0.0848 H   0  0  0  0  0  0  0  0  0  0  0  0
    8.7043    0.4514    0.5931 H   0  0  0  0  0  0  0  0  0  0  0  0
   -2.1019    0.0997    1.8993 H   0  0  0  0  0  0  0  0  0  0  0  0
   -2.7490    2.6188    1.0761 H   0  0  0  0  0  0  0  0  0  0  0  0
   -4.0237    4.5608    0.5658 H   0  0  0  0  0  0  0  0  0  0  0  0
   -5.2574    3.5486   -0.3915 H   0  0  0  0  0  0  0  0  0  0  0  0
   -7.7167    0.3555   -1.6509 H   0  0  0  0  0  0  0  0  0  0  0  0
   -8.2867   -1.3089   -2.0208 H   0  0  0  0  0  0  0  0  0  0  0  0
   -4.7513   -4.1640   -0.7923 H   0  0  0  0  0  0  0  0  0  0  0  0
   -1.4391   -1.7635   -0.4591 H   0  0  0  0  0  0  0  0  0  0  0  0
   -1.3071   -3.2290    1.2206 H   0  0  0  0  0  0  0  0  0  0  0  0
    0.8072   -1.6611    0.0473 H   0  0  0  0  0  0  0  0  0  0  0  0
    0.1181   -0.6657    2.6565 H   0  0  0  0  0  0  0  0  0  0  0  0
  1  2  1  0
  2  3  1  0
  3  4  1  0
  3  5  1  0
  5  6  1  0
  6  7  1  0
  7  8  1  0
  8  9  1  0
  9 10  1  0
  1 11  1  0
 11 12  1  0
 12 13  1  0
 13 14  1  0
 14 15  1  0
 15 16  2  3
 14 17  2  0
 17 18  1  0
 18 19  2  0
 19 20  1  0
 19 21  1  0
 21 22  2  0
 22 23  1  0
 23 24  2  0
 12 25  1  0
 25 26  1  0
 25 27  1  0
 27 28  1  0
 27  1  1  0
 24 13  1  0
 24 18  1  0
  1 29  1  1
  2 30  1  0
  2 31  1  0
  4 32  1  0
  4 33  1  0
  4 34  1  0
  5 35  1  0
  5 36  1  0
  6 37  1  0
  6 38  1  0
  7 39  1  0
  7 40  1  0
  8 41  1  0
  8 42  1  0
 10 43  1  0
 10 44  1  0
 12 45  1  1
 15 46  1  0
 16 47  1  0
 16 48  1  0
 20 49  1  0
 20 50  1  0
 22 51  1  0
 25 52  1  6
 26 53  1  0
 27 54  1  6
 28 55  1  0
M  END
$$$$
