
     RDKit          3D

 42 44  0  0  0  0  0  0  0  0999 V2000
    3.8832    1.8014   -0.5068 C   0  0  0  0  0  0  0  0  0  0  0  0
    3.6567    0.9051    0.7062 C   0  0  0  0  0  0  0  0  0  0  0  0
    3.0180   -0.3962    0.2978 C   0  0  0  0  0  0  0  0  0  0  0  0
    1.6344   -0.5133    0.0936 C   0  0  0  0  0  0  0  0  0  0  0  0
    0.6917    0.4438    0.2362 N   0  0  0  0  0  0  0  0  0  0  0  0
   -0.4808   -0.1605   -0.0684 C   0  0  0  0  0  0  0  0  0  0  0  0
   -0.2828   -1.4708   -0.4284 C   0  0  0  0  0  0  0  0  0  0  0  0
   -1.3963   -2.3747   -0.8181 C   0  0  0  0  0  0  0  0  0  0  0  0
   -2.5936   -1.5024   -1.2299 C   0  0  0  0  0  0  0  0  0  0  0  0
   -2.8862   -0.5081   -0.2510 O   0  0  0  0  0  0  0  0  0  0  0  0
   -1.8554    0.4801   -0.0957 C   0  0  0  0  0  0  0  0  0  0  0  0
   -2.1065    1.2052    1.2540 C   0  0  0  0  0  0  0  0  0  0  0  0
   -2.0588    0.2660    2.4639 C   0  0  0  0  0  0  0  0  0  0  0  0
   -1.9003    1.5128   -1.2556 C   0  0  0  0  0  0  0  0  0  0  0  0
   -3.2774    2.0583   -1.4931 C   0  0  0  0  0  0  0  0  0  0  0  0
   -3.6528    3.2689   -0.9191 O   0  0  0  0  0  0  0  0  0  0  0  0
   -4.1012    1.4125   -2.1947 O   0  0  0  0  0  0  0  0  0  0  0  0
    1.0679   -1.7021   -0.3100 C   0  0  0  0  0  0  0  0  0  0  0  0
    1.8269   -2.8455   -0.5420 C   0  0  0  0  0  0  0  0  0  0  0  0
    3.2163   -2.7560   -0.3554 C   0  0  0  0  0  0  0  0  0  0  0  0
    3.8091   -1.5419    0.0549 C   0  0  0  0  0  0  0  0  0  0  0  0
    4.5520    1.2978   -1.2372 H   0  0  0  0  0  0  0  0  0  0  0  0
    2.9164    2.0391   -0.9997 H   0  0  0  0  0  0  0  0  0  0  0  0
    4.3595    2.7508   -0.1838 H   0  0  0  0  0  0  0  0  0  0  0  0
    4.6331    0.7134    1.2022 H   0  0  0  0  0  0  0  0  0  0  0  0
    3.0160    1.4317    1.4452 H   0  0  0  0  0  0  0  0  0  0  0  0
    0.8302    1.4404    0.5137 H   0  0  0  0  0  0  0  0  0  0  0  0
   -1.6718   -3.0092    0.0509 H   0  0  0  0  0  0  0  0  0  0  0  0
   -1.0881   -3.0221   -1.6665 H   0  0  0  0  0  0  0  0  0  0  0  0
   -3.4829   -2.1577   -1.3387 H   0  0  0  0  0  0  0  0  0  0  0  0
   -2.4144   -1.0453   -2.2266 H   0  0  0  0  0  0  0  0  0  0  0  0
   -3.1118    1.6786    1.2381 H   0  0  0  0  0  0  0  0  0  0  0  0
   -1.3628    2.0179    1.4044 H   0  0  0  0  0  0  0  0  0  0  0  0
   -2.8016   -0.5520    2.3545 H   0  0  0  0  0  0  0  0  0  0  0  0
   -1.0457   -0.1718    2.5844 H   0  0  0  0  0  0  0  0  0  0  0  0
   -2.3004    0.8381    3.3843 H   0  0  0  0  0  0  0  0  0  0  0  0
   -1.2130    2.3590   -1.0350 H   0  0  0  0  0  0  0  0  0  0  0  0
   -1.5321    1.0564   -2.1996 H   0  0  0  0  0  0  0  0  0  0  0  0
   -4.5825    3.6450   -1.0614 H   0  0  0  0  0  0  0  0  0  0  0  0
    1.3661   -3.7711   -0.8621 H   0  0  0  0  0  0  0  0  0  0  0  0
    3.8380   -3.6239   -0.5332 H   0  0  0  0  0  0  0  0  0  0  0  0
    4.8837   -1.4978    0.1811 H   0  0  0  0  0  0  0  0  0  0  0  0
  1  2  1  0
  2  3  1  0
  3  4  2  0
  4  5  1  0
  5  6  1  0
  6  7  2  0
  7  8  1  0
  8  9  1  0
  9 10  1  0
 10 11  1  0
 11 12  1  0
 12 13  1  0
 11 14  1  0
 14 15  1  0
 15 16  1  0
 15 17  2  0
  7 18  1  0
 18 19  2  0
 19 20  1  0
 20 21  2  0
 21  3  1  0
 18  4  1  0
 11  6  1  0
  1 22  1  0
  1 23  1  0
  1 24  1  0
  2 25  1  0
  2 26  1  0
  5 27  1  0
  8 28  1  0
  8 29  1  0
  9 30  1  0
  9 31  1  0
 12 32  1  0
 12 33  1  0
 13 34  1  0
 13 35  1  0
 13 36  1  0
 14 37  1  0
 14 38  1  0
 16 39  1  0
 19 40  1  0
 20 41  1  0
 21 42  1  0
M  END
$$$$
