
     RDKit          3D

 75 78  0  0  0  0  0  0  0  0999 V2000
    8.3164   -0.1167   -0.8473 C   0  0  0  0  0  0  0  0  0  0  0  0
    9.7897    0.1171   -1.0205 C   0  0  0  0  0  0  0  0  0  0  0  0
   10.4912   -1.1121   -1.0276 O   0  0  0  0  0  0  0  0  0  0  0  0
   10.5334   -1.6709   -2.3285 C   0  0  0  0  0  0  0  0  0  0  0  0
   11.8270   -1.2774   -3.0330 C   0  0  0  0  0  0  0  0  0  0  0  0
    7.4631    0.9134   -0.8039 C   0  0  0  0  0  0  0  0  0  0  0  0
    5.9942    0.7671   -0.6529 C   0  0  0  0  0  0  0  0  0  0  0  0
    5.1709    1.8403   -1.0256 C   0  0  0  0  0  0  0  0  0  0  0  0
    3.7818    1.7548   -0.8949 C   0  0  0  0  0  0  0  0  0  0  0  0
    3.1832    0.5939   -0.3746 C   0  0  0  0  0  0  0  0  0  0  0  0
    4.0083   -0.4773    0.0090 C   0  0  0  0  0  0  0  0  0  0  0  0
    5.3973   -0.3919   -0.1220 C   0  0  0  0  0  0  0  0  0  0  0  0
    1.7103    0.4810   -0.2287 C   0  0  0  0  0  0  0  0  0  0  0  0
    1.0928   -0.6765    0.0983 N   0  0  0  0  0  0  0  0  0  0  0  0
   -0.2177   -0.3638    0.1414 C   0  0  0  0  0  0  0  0  0  0  0  0
   -0.3730    0.9849   -0.1455 C   0  0  0  0  0  0  0  0  0  0  0  0
    0.8425    1.5047   -0.3877 N   0  0  0  0  0  0  0  0  0  0  0  0
   -1.6137    1.7882   -0.1030 C   0  0  0  0  0  0  0  0  0  0  0  0
   -1.8454    2.7740   -1.0714 C   0  0  0  0  0  0  0  0  0  0  0  0
   -3.0275    3.5194   -1.0501 C   0  0  0  0  0  0  0  0  0  0  0  0
   -4.0009    3.2956   -0.0623 C   0  0  0  0  0  0  0  0  0  0  0  0
   -5.2114    4.0816   -0.0878 N   0  0  0  0  0  0  0  0  0  0  0  0
   -6.5458    3.6659    0.3743 C   0  0  0  0  0  0  0  0  0  0  0  0
   -6.8809    2.2215   -0.0206 C   0  0  0  0  0  0  0  0  0  0  0  0
   -6.7328    3.9260    1.8725 C   0  0  0  0  0  0  0  0  0  0  0  0
   -3.7419    2.3389    0.9354 C   0  0  0  0  0  0  0  0  0  0  0  0
   -2.5597    1.5948    0.9150 C   0  0  0  0  0  0  0  0  0  0  0  0
   -1.2751   -1.3633    0.4014 C   0  0  0  0  0  0  0  0  0  0  0  0
   -2.4857   -1.3349   -0.3081 C   0  0  0  0  0  0  0  0  0  0  0  0
   -3.4876   -2.2708   -0.0396 C   0  0  0  0  0  0  0  0  0  0  0  0
   -3.2970   -3.2594    0.9423 C   0  0  0  0  0  0  0  0  0  0  0  0
   -4.3058   -4.2418    1.2602 N   0  0  0  0  0  0  0  0  0  0  0  0
   -5.7657   -4.0632    1.1985 C   0  0  0  0  0  0  0  0  0  0  0  0
   -6.3129   -4.3513   -0.2033 C   0  0  0  0  0  0  0  0  0  0  0  0
   -6.2142   -2.6990    1.7388 C   0  0  0  0  0  0  0  0  0  0  0  0
   -2.0631   -3.3152    1.6113 C   0  0  0  0  0  0  0  0  0  0  0  0
   -1.0613   -2.3782    1.3436 C   0  0  0  0  0  0  0  0  0  0  0  0
    7.9633   -1.1372   -0.7883 H   0  0  0  0  0  0  0  0  0  0  0  0
   10.1525    0.7116   -0.1555 H   0  0  0  0  0  0  0  0  0  0  0  0
    9.9831    0.7279   -1.9333 H   0  0  0  0  0  0  0  0  0  0  0  0
   10.5172   -2.7766   -2.2272 H   0  0  0  0  0  0  0  0  0  0  0  0
    9.6540   -1.3989   -2.9591 H   0  0  0  0  0  0  0  0  0  0  0  0
   11.8662   -0.1786   -3.1850 H   0  0  0  0  0  0  0  0  0  0  0  0
   11.8801   -1.7766   -4.0235 H   0  0  0  0  0  0  0  0  0  0  0  0
   12.7014   -1.5919   -2.4247 H   0  0  0  0  0  0  0  0  0  0  0  0
    7.8601    1.9153   -0.9265 H   0  0  0  0  0  0  0  0  0  0  0  0
    5.6038    2.7468   -1.4313 H   0  0  0  0  0  0  0  0  0  0  0  0
    3.1872    2.5982   -1.2149 H   0  0  0  0  0  0  0  0  0  0  0  0
    3.5810   -1.3819    0.4238 H   0  0  0  0  0  0  0  0  0  0  0  0
    5.9931   -1.2276    0.2167 H   0  0  0  0  0  0  0  0  0  0  0  0
    1.0555    2.5051   -0.5937 H   0  0  0  0  0  0  0  0  0  0  0  0
   -1.1226    2.9515   -1.8582 H   0  0  0  0  0  0  0  0  0  0  0  0
   -3.1935    4.2635   -1.8190 H   0  0  0  0  0  0  0  0  0  0  0  0
   -5.1883    4.9574   -0.6591 H   0  0  0  0  0  0  0  0  0  0  0  0
   -7.2905    4.3112   -0.1445 H   0  0  0  0  0  0  0  0  0  0  0  0
   -6.6621    2.0631   -1.0979 H   0  0  0  0  0  0  0  0  0  0  0  0
   -6.3075    1.4846    0.5757 H   0  0  0  0  0  0  0  0  0  0  0  0
   -7.9620    2.0288    0.1472 H   0  0  0  0  0  0  0  0  0  0  0  0
   -6.4090    4.9593    2.1197 H   0  0  0  0  0  0  0  0  0  0  0  0
   -6.1658    3.2142    2.5001 H   0  0  0  0  0  0  0  0  0  0  0  0
   -7.8074    3.8276    2.1366 H   0  0  0  0  0  0  0  0  0  0  0  0
   -4.4320    2.1621    1.7408 H   0  0  0  0  0  0  0  0  0  0  0  0
   -2.3813    0.8720    1.7013 H   0  0  0  0  0  0  0  0  0  0  0  0
   -2.6546   -0.5945   -1.0797 H   0  0  0  0  0  0  0  0  0  0  0  0
   -4.3938   -2.2142   -0.6155 H   0  0  0  0  0  0  0  0  0  0  0  0
   -3.9808   -5.1005    1.7613 H   0  0  0  0  0  0  0  0  0  0  0  0
   -6.2202   -4.8280    1.8683 H   0  0  0  0  0  0  0  0  0  0  0  0
   -5.9026   -5.3128   -0.5787 H   0  0  0  0  0  0  0  0  0  0  0  0
   -7.4195   -4.4404   -0.1603 H   0  0  0  0  0  0  0  0  0  0  0  0
   -6.0679   -3.5518   -0.9264 H   0  0  0  0  0  0  0  0  0  0  0  0
   -5.7358   -2.5054    2.7223 H   0  0  0  0  0  0  0  0  0  0  0  0
   -7.3160   -2.6965    1.8810 H   0  0  0  0  0  0  0  0  0  0  0  0
   -5.9591   -1.8735    1.0453 H   0  0  0  0  0  0  0  0  0  0  0  0
   -1.8825   -4.0792    2.3571 H   0  0  0  0  0  0  0  0  0  0  0  0
   -0.1266   -2.4332    1.8884 H   0  0  0  0  0  0  0  0  0  0  0  0
  1  2  1  0
  2  3  1  0
  3  4  1  0
  4  5  1  0
  1  6  2  0
  6  7  1  0
  7  8  2  0
  8  9  1  0
  9 10  2  0
 10 11  1  0
 11 12  2  0
 10 13  1  0
 13 14  2  0
 14 15  1  0
 15 16  2  0
 16 17  1  0
 16 18  1  0
 18 19  2  0
 19 20  1  0
 20 21  2  0
 21 22  1  0
 22 23  1  0
 23 24  1  0
 23 25  1  0
 21 26  1  0
 26 27  2  0
 15 28  1  0
 28 29  2  0
 29 30  1  0
 30 31  2  0
 31 32  1  0
 32 33  1  0
 33 34  1  0
 33 35  1  0
 31 36  1  0
 36 37  2  0
 12  7  1  0
 17 13  1  0
 27 18  1  0
 37 28  1  0
  1 38  1  0
  2 39  1  0
  2 40  1  0
  4 41  1  0
  4 42  1  0
  5 43  1  0
  5 44  1  0
  5 45  1  0
  6 46  1  0
  8 47  1  0
  9 48  1  0
 11 49  1  0
 12 50  1  0
 17 51  1  0
 19 52  1  0
 20 53  1  0
 22 54  1  0
 23 55  1  0
 24 56  1  0
 24 57  1  0
 24 58  1  0
 25 59  1  0
 25 60  1  0
 25 61  1  0
 26 62  1  0
 27 63  1  0
 29 64  1  0
 30 65  1  0
 32 66  1  0
 33 67  1  0
 34 68  1  0
 34 69  1  0
 34 70  1  0
 35 71  1  0
 35 72  1  0
 35 73  1  0
 36 74  1  0
 37 75  1  0
M  END
$$$$
