
     RDKit          3D

 39 39  0  0  0  0  0  0  0  0999 V2000
   -2.3099   -3.0252    1.2105 O   0  0  0  0  0  0  0  0  0  0  0  0
   -2.8201   -1.8231    0.8513 N   0  0  0  0  0  0  0  0  0  0  0  0
   -3.3476   -1.6195   -0.4624 C   0  0  0  0  0  0  0  0  0  0  0  0
   -3.3529   -2.5687   -1.2916 O   0  0  0  0  0  0  0  0  0  0  0  0
   -3.8500   -0.2670   -0.8788 C   0  0  0  0  0  0  0  0  0  0  0  0
   -2.7735    0.5280   -1.6298 C   0  0  0  0  0  0  0  0  0  0  0  0
   -1.6048    0.9256   -0.7130 C   0  0  0  0  0  0  0  0  0  0  0  0
   -0.5775    1.8356   -1.4078 C   0  0  0  0  0  0  0  0  0  0  0  0
    0.1190    1.2149   -2.6369 C   0  0  0  0  0  0  0  0  0  0  0  0
    0.8243   -0.1249   -2.3684 C   0  0  0  0  0  0  0  0  0  0  0  0
    1.8476   -0.0129   -1.2759 C   0  0  0  0  0  0  0  0  0  0  0  0
    2.9127    0.6270   -1.4901 O   0  0  0  0  0  0  0  0  0  0  0  0
    1.6183   -0.6437   -0.0063 N   0  0  0  0  0  0  0  0  0  0  0  0
    2.3074   -0.2900    1.2047 C   0  0  0  0  0  0  0  0  0  0  0  0
    2.7464    1.0262    1.4435 C   0  0  0  0  0  0  0  0  0  0  0  0
    3.3885    1.3484    2.6434 C   0  0  0  0  0  0  0  0  0  0  0  0
    3.5862    0.3673    3.6182 C   0  0  0  0  0  0  0  0  0  0  0  0
    3.1339   -0.9361    3.3988 C   0  0  0  0  0  0  0  0  0  0  0  0
    2.4905   -1.2622    2.2009 C   0  0  0  0  0  0  0  0  0  0  0  0
   -1.3450   -2.9672    0.9898 H   0  0  0  0  0  0  0  0  0  0  0  0
   -2.8249   -1.0433    1.5464 H   0  0  0  0  0  0  0  0  0  0  0  0
   -4.7281   -0.4013   -1.5469 H   0  0  0  0  0  0  0  0  0  0  0  0
   -4.1971    0.3036    0.0097 H   0  0  0  0  0  0  0  0  0  0  0  0
   -2.4057   -0.0811   -2.4831 H   0  0  0  0  0  0  0  0  0  0  0  0
   -3.2406    1.4488   -2.0421 H   0  0  0  0  0  0  0  0  0  0  0  0
   -2.0088    1.4773    0.1638 H   0  0  0  0  0  0  0  0  0  0  0  0
   -1.0992    0.0208   -0.3201 H   0  0  0  0  0  0  0  0  0  0  0  0
   -1.0842    2.7727   -1.7257 H   0  0  0  0  0  0  0  0  0  0  0  0
    0.1941    2.1279   -0.6630 H   0  0  0  0  0  0  0  0  0  0  0  0
    0.8697    1.9430   -3.0149 H   0  0  0  0  0  0  0  0  0  0  0  0
   -0.6205    1.0757   -3.4537 H   0  0  0  0  0  0  0  0  0  0  0  0
    1.3351   -0.4509   -3.2998 H   0  0  0  0  0  0  0  0  0  0  0  0
    0.0759   -0.9083   -2.1254 H   0  0  0  0  0  0  0  0  0  0  0  0
    0.9419   -1.4398    0.0292 H   0  0  0  0  0  0  0  0  0  0  0  0
    2.5720    1.8103    0.7190 H   0  0  0  0  0  0  0  0  0  0  0  0
    3.7248    2.3617    2.8212 H   0  0  0  0  0  0  0  0  0  0  0  0
    4.0818    0.6192    4.5469 H   0  0  0  0  0  0  0  0  0  0  0  0
    3.2793   -1.6937    4.1581 H   0  0  0  0  0  0  0  0  0  0  0  0
    2.1413   -2.2751    2.0442 H   0  0  0  0  0  0  0  0  0  0  0  0
  1  2  1  0
  2  3  1  0
  3  4  2  0
  3  5  1  0
  5  6  1  0
  6  7  1  0
  7  8  1  0
  8  9  1  0
  9 10  1  0
 10 11  1  0
 11 12  2  0
 11 13  1  0
 13 14  1  0
 14 15  2  0
 15 16  1  0
 16 17  2  0
 17 18  1  0
 18 19  2  0
 19 14  1  0
  1 20  1  0
  2 21  1  0
  5 22  1  0
  5 23  1  0
  6 24  1  0
  6 25  1  0
  7 26  1  0
  7 27  1  0
  8 28  1  0
  8 29  1  0
  9 30  1  0
  9 31  1  0
 10 32  1  0
 10 33  1  0
 13 34  1  0
 15 35  1  0
 16 36  1  0
 17 37  1  0
 18 38  1  0
 19 39  1  0
M  END
$$$$
