
     RDKit          3D

 47 47  0  0  0  0  0  0  0  0999 V2000
    2.5292    0.6745    2.8622 C   0  0  2  0  0  0  0  0  0  0  0  0
    3.9185    1.3006    2.9993 C   0  0  0  0  0  0  0  0  0  0  0  0
    2.6259   -0.7869    2.8676 N   0  0  0  0  0  0  0  0  0  0  0  0
    1.8290    1.1746    1.6213 C   0  0  0  0  0  0  0  0  0  0  0  0
    0.7840    1.8692    1.7453 O   0  0  0  0  0  0  0  0  0  0  0  0
    2.3433    0.8802    0.3127 N   0  0  0  0  0  0  0  0  0  0  0  0
    1.5858    1.1893   -0.9031 C   0  0  1  0  0  0  0  0  0  0  0  0
    2.5100    1.2014   -2.1227 C   0  0  0  0  0  0  0  0  0  0  0  0
    0.4936    0.1734   -1.0990 C   0  0  0  0  0  0  0  0  0  0  0  0
    0.7598   -1.0545   -0.9843 O   0  0  0  0  0  0  0  0  0  0  0  0
   -0.8315    0.5988   -1.4510 N   0  0  0  0  0  0  0  0  0  0  0  0
   -1.9095   -0.3389   -1.7888 C   0  0  1  0  0  0  0  0  0  0  0  0
   -2.9595   -0.3450   -0.6604 C   0  0  0  0  0  0  0  0  0  0  0  0
   -2.3644   -0.8179    0.6415 C   0  0  0  0  0  0  0  0  0  0  0  0
   -2.1593   -2.1895    0.8670 C   0  0  0  0  0  0  0  0  0  0  0  0
   -1.5809   -2.6283    2.0619 C   0  0  0  0  0  0  0  0  0  0  0  0
   -1.2008   -1.7028    3.0373 C   0  0  0  0  0  0  0  0  0  0  0  0
   -1.3924   -0.3364    2.8167 C   0  0  0  0  0  0  0  0  0  0  0  0
   -1.9684    0.1070    1.6221 C   0  0  0  0  0  0  0  0  0  0  0  0
   -2.5474    0.0629   -3.1428 C   0  0  1  0  0  0  0  0  0  0  0  0
   -1.5148    0.0725   -4.2790 C   0  0  0  0  0  0  0  0  0  0  0  0
   -3.6123   -0.7939   -3.4749 O   0  0  0  0  0  0  0  0  0  0  0  0
    1.9370    0.9821    3.7533 H   0  0  0  0  0  0  0  0  0  0  0  0
    3.8381    2.4087    3.0187 H   0  0  0  0  0  0  0  0  0  0  0  0
    4.3885    0.9668    3.9487 H   0  0  0  0  0  0  0  0  0  0  0  0
    4.5760    1.0015    2.1558 H   0  0  0  0  0  0  0  0  0  0  0  0
    1.6638   -1.1874    2.7819 H   0  0  0  0  0  0  0  0  0  0  0  0
    3.1738   -1.1120    2.0385 H   0  0  0  0  0  0  0  0  0  0  0  0
    3.2523    0.3715    0.2283 H   0  0  0  0  0  0  0  0  0  0  0  0
    1.1467    2.2069   -0.8090 H   0  0  0  0  0  0  0  0  0  0  0  0
    1.9343    1.4668   -3.0355 H   0  0  0  0  0  0  0  0  0  0  0  0
    3.3111    1.9577   -1.9807 H   0  0  0  0  0  0  0  0  0  0  0  0
    2.9805    0.2053   -2.2706 H   0  0  0  0  0  0  0  0  0  0  0  0
   -1.0526    1.6204   -1.4326 H   0  0  0  0  0  0  0  0  0  0  0  0
   -1.5060   -1.3705   -1.8966 H   0  0  0  0  0  0  0  0  0  0  0  0
   -3.8011   -1.0201   -0.9287 H   0  0  0  0  0  0  0  0  0  0  0  0
   -3.3883    0.6746   -0.5408 H   0  0  0  0  0  0  0  0  0  0  0  0
   -2.4445   -2.9162    0.1163 H   0  0  0  0  0  0  0  0  0  0  0  0
   -1.4256   -3.6860    2.2309 H   0  0  0  0  0  0  0  0  0  0  0  0
   -0.7513   -2.0436    3.9609 H   0  0  0  0  0  0  0  0  0  0  0  0
   -1.0884    0.3798    3.5691 H   0  0  0  0  0  0  0  0  0  0  0  0
   -2.1013    1.1694    1.4601 H   0  0  0  0  0  0  0  0  0  0  0  0
   -2.9578    1.0926   -3.0511 H   0  0  0  0  0  0  0  0  0  0  0  0
   -2.0165    0.3139   -5.2400 H   0  0  0  0  0  0  0  0  0  0  0  0
   -1.0261   -0.9210   -4.3710 H   0  0  0  0  0  0  0  0  0  0  0  0
   -0.7359    0.8419   -4.0928 H   0  0  0  0  0  0  0  0  0  0  0  0
   -3.2448   -1.7134   -3.5522 H   0  0  0  0  0  0  0  0  0  0  0  0
  1  2  1  0
  1  3  1  0
  1  4  1  0
  4  5  2  0
  4  6  1  0
  6  7  1  0
  7  8  1  0
  7  9  1  0
  9 10  2  0
  9 11  1  0
 11 12  1  0
 12 13  1  0
 13 14  1  0
 14 15  2  0
 15 16  1  0
 16 17  2  0
 17 18  1  0
 18 19  2  0
 12 20  1  0
 20 21  1  0
 20 22  1  0
 19 14  1  0
  1 23  1  1
  2 24  1  0
  2 25  1  0
  2 26  1  0
  3 27  1  0
  3 28  1  0
  6 29  1  0
  7 30  1  1
  8 31  1  0
  8 32  1  0
  8 33  1  0
 11 34  1  0
 12 35  1  6
 13 36  1  0
 13 37  1  0
 15 38  1  0
 16 39  1  0
 17 40  1  0
 18 41  1  0
 19 42  1  0
 20 43  1  1
 21 44  1  0
 21 45  1  0
 21 46  1  0
 22 47  1  0
M  END
$$$$
