
     RDKit          3D

 56 58  0  0  0  0  0  0  0  0999 V2000
    5.0220    0.6248   -1.1094 C   0  0  0  0  0  0  0  0  0  0  0  0
    4.2631   -0.2982   -0.2293 N   0  0  0  0  0  4  0  0  0  0  0  0
    5.2353   -1.2153    0.4159 C   0  0  0  0  0  0  0  0  0  0  0  0
    3.3107   -1.1083   -1.0537 C   0  0  0  0  0  0  0  0  0  0  0  0
    1.9369   -0.4291   -1.1928 C   0  0  0  0  0  0  0  0  0  0  0  0
    1.2701   -0.2344    0.1219 N   0  0  0  0  0  0  0  0  0  0  0  0
    0.3209    0.9101    0.1077 C   0  0  0  0  0  0  0  0  0  0  0  0
   -1.0219    0.5785   -0.6384 C   0  0  0  0  0  0  0  0  0  0  0  0
   -0.7178    0.4020   -2.0059 O   0  0  0  0  0  0  0  0  0  0  0  0
   -1.6346   -0.7806   -0.1361 C   0  0  0  0  0  0  0  0  0  0  0  0
   -2.8426   -1.2460   -1.0010 C   0  0  0  0  0  0  0  0  0  0  0  0
   -3.7351   -2.2957   -0.3053 C   0  0  0  0  0  0  0  0  0  0  0  0
   -2.9517   -3.1320    0.7101 C   0  0  0  0  0  0  0  0  0  0  0  0
   -2.3462   -2.2544    1.8237 C   0  0  0  0  0  0  0  0  0  0  0  0
   -2.0097   -0.8201    1.3638 C   0  0  0  0  0  0  0  0  0  0  0  0
   -2.0368    1.7402   -0.4903 C   0  0  0  0  0  0  0  0  0  0  0  0
   -2.7684    2.2028   -1.6110 C   0  0  0  0  0  0  0  0  0  0  0  0
   -3.6980    3.2388   -1.4881 C   0  0  0  0  0  0  0  0  0  0  0  0
   -3.9298    3.8294   -0.2477 C   0  0  0  0  0  0  0  0  0  0  0  0
   -3.2394    3.3785    0.8756 C   0  0  0  0  0  0  0  0  0  0  0  0
   -2.3078    2.3429    0.7616 C   0  0  0  0  0  0  0  0  0  0  0  0
    2.2321   -0.1522    1.2513 C   0  0  0  0  0  0  0  0  0  0  0  0
    3.5557    0.5011    0.8221 C   0  0  0  0  0  0  0  0  0  0  0  0
    5.7120    1.2650   -0.5146 H   0  0  0  0  0  0  0  0  0  0  0  0
    5.6334    0.0641   -1.8521 H   0  0  0  0  0  0  0  0  0  0  0  0
    4.3373    1.2957   -1.6733 H   0  0  0  0  0  0  0  0  0  0  0  0
    4.7297   -1.8845    1.1469 H   0  0  0  0  0  0  0  0  0  0  0  0
    6.0219   -0.6496    0.9645 H   0  0  0  0  0  0  0  0  0  0  0  0
    5.7421   -1.8562   -0.3407 H   0  0  0  0  0  0  0  0  0  0  0  0
    3.7209   -1.3113   -2.0695 H   0  0  0  0  0  0  0  0  0  0  0  0
    3.1314   -2.1092   -0.5962 H   0  0  0  0  0  0  0  0  0  0  0  0
    1.3002   -1.0840   -1.8241 H   0  0  0  0  0  0  0  0  0  0  0  0
    2.0749    0.5345   -1.7304 H   0  0  0  0  0  0  0  0  0  0  0  0
    0.7980    1.8091   -0.3434 H   0  0  0  0  0  0  0  0  0  0  0  0
    0.0908    1.2102    1.1447 H   0  0  0  0  0  0  0  0  0  0  0  0
   -0.2891    1.2335   -2.3418 H   0  0  0  0  0  0  0  0  0  0  0  0
   -0.8474   -1.5548   -0.2791 H   0  0  0  0  0  0  0  0  0  0  0  0
   -2.4552   -1.6755   -1.9511 H   0  0  0  0  0  0  0  0  0  0  0  0
   -3.4908   -0.3888   -1.2734 H   0  0  0  0  0  0  0  0  0  0  0  0
   -4.5690   -1.7819    0.2226 H   0  0  0  0  0  0  0  0  0  0  0  0
   -4.1861   -2.9652   -1.0693 H   0  0  0  0  0  0  0  0  0  0  0  0
   -2.1388   -3.6751    0.1794 H   0  0  0  0  0  0  0  0  0  0  0  0
   -3.6230   -3.8938    1.1620 H   0  0  0  0  0  0  0  0  0  0  0  0
   -1.4226   -2.7472    2.1988 H   0  0  0  0  0  0  0  0  0  0  0  0
   -3.0579   -2.1970    2.6760 H   0  0  0  0  0  0  0  0  0  0  0  0
   -1.1822   -0.4422    1.9975 H   0  0  0  0  0  0  0  0  0  0  0  0
   -2.9001   -0.1792    1.5390 H   0  0  0  0  0  0  0  0  0  0  0  0
   -2.6381    1.7585   -2.5886 H   0  0  0  0  0  0  0  0  0  0  0  0
   -4.2447    3.5798   -2.3578 H   0  0  0  0  0  0  0  0  0  0  0  0
   -4.6524    4.6299   -0.1549 H   0  0  0  0  0  0  0  0  0  0  0  0
   -3.4318    3.8275    1.8415 H   0  0  0  0  0  0  0  0  0  0  0  0
   -1.8246    2.0130    1.6681 H   0  0  0  0  0  0  0  0  0  0  0  0
    2.4342   -1.1802    1.6199 H   0  0  0  0  0  0  0  0  0  0  0  0
    1.8188    0.3959    2.1256 H   0  0  0  0  0  0  0  0  0  0  0  0
    4.1945    0.6521    1.7223 H   0  0  0  0  0  0  0  0  0  0  0  0
    3.3065    1.5239    0.4558 H   0  0  0  0  0  0  0  0  0  0  0  0
  1  2  1  0
  2  3  1  0
  2  4  1  0
  4  5  1  0
  5  6  1  0
  6  7  1  0
  7  8  1  0
  8  9  1  0
  8 10  1  0
 10 11  1  0
 11 12  1  0
 12 13  1  0
 13 14  1  0
 14 15  1  0
  8 16  1  0
 16 17  2  0
 17 18  1  0
 18 19  2  0
 19 20  1  0
 20 21  2  0
  6 22  1  0
 22 23  1  0
 23  2  1  0
 15 10  1  0
 21 16  1  0
  1 24  1  0
  1 25  1  0
  1 26  1  0
  3 27  1  0
  3 28  1  0
  3 29  1  0
  4 30  1  0
  4 31  1  0
  5 32  1  0
  5 33  1  0
  7 34  1  0
  7 35  1  0
  9 36  1  0
 10 37  1  0
 11 38  1  0
 11 39  1  0
 12 40  1  0
 12 41  1  0
 13 42  1  0
 13 43  1  0
 14 44  1  0
 14 45  1  0
 15 46  1  0
 15 47  1  0
 17 48  1  0
 18 49  1  0
 19 50  1  0
 20 51  1  0
 21 52  1  0
 22 53  1  0
 22 54  1  0
 23 55  1  0
 23 56  1  0
M  CHG  1   2   1
M  END
$$$$
