
     RDKit          3D

124127  0  0  0  0  0  0  0  0999 V2000
    5.4773   -1.6823   -1.4314 C   0  0  2  0  0  0  0  0  0  0  0  0
    6.2874   -1.8170   -0.1153 C   0  0  0  0  0  0  0  0  0  0  0  0
    7.4686   -0.8420   -0.0728 C   0  0  0  0  0  0  0  0  0  0  0  0
    8.4672   -1.0965   -1.2273 C   0  0  2  0  0  0  0  0  0  0  0  0
    9.3067    0.4394   -1.6157 Cl  0  0  0  0  0  0  0  0  0  0  0  0
    7.8011   -1.7293   -2.4865 C   0  0  1  0  0  0  0  0  0  0  0  0
    6.3538   -1.2381   -2.6306 C   0  0  0  0  0  0  0  0  0  0  0  0
    8.5124   -1.4007   -3.6693 O   0  0  0  0  0  0  0  0  0  0  0  0
    9.5440   -2.3347   -3.9046 C   0  0  0  0  0  0  0  0  0  0  0  0
    4.3328   -0.7027   -1.2456 C   0  0  0  0  0  0  0  0  0  0  0  0
    3.0894   -0.8593   -1.7680 C   0  0  0  0  0  0  0  0  0  0  0  0
    2.7688   -2.0501   -2.6476 C   0  0  0  0  0  0  0  0  0  0  0  0
    1.9654    0.1607   -1.5734 C   0  0  1  0  0  0  0  0  0  0  0  0
    0.7777   -0.5003   -1.1013 O   0  0  0  0  0  0  0  0  0  0  0  0
    0.4702   -0.8593    0.2203 C   0  0  0  0  0  0  0  0  0  0  0  0
    0.0844    0.0178    1.0358 O   0  0  0  0  0  0  0  0  0  0  0  0
    0.4223   -2.3019    0.6518 C   0  0  2  0  0  0  0  0  0  0  0  0
    1.8434   -2.7381    1.0561 C   0  0  0  0  0  0  0  0  0  0  0  0
    1.9006   -4.2261    1.3856 C   0  0  0  0  0  0  0  0  0  0  0  0
    1.4184   -5.0399    0.1897 C   0  0  0  0  0  0  0  0  0  0  0  0
   -0.0164   -4.6585   -0.1726 C   0  0  0  0  0  0  0  0  0  0  0  0
   -0.1651   -3.2046   -0.3729 N   0  0  0  0  0  0  0  0  0  0  0  0
   -1.2497   -2.7993   -1.2484 C   0  0  0  0  0  0  0  0  0  0  0  0
   -1.4244   -3.4063   -2.3391 O   0  0  0  0  0  0  0  0  0  0  0  0
   -2.1776   -1.6972   -0.9249 C   0  0  0  0  0  0  0  0  0  0  0  0
   -1.9538   -0.5682   -1.4400 O   0  0  0  0  0  0  0  0  0  0  0  0
   -3.5064   -1.9162   -0.2161 C   0  0  2  0  0  0  0  0  0  0  0  0
   -4.4354   -2.3789   -1.1744 O   0  0  0  0  0  0  0  0  0  0  0  0
   -3.9080   -0.6525    0.2995 O   0  0  0  0  0  0  0  0  0  0  0  0
   -5.2391   -0.6538    0.7960 C   0  0  1  0  0  0  0  0  0  0  0  0
   -5.4835   -1.7733    1.8602 C   0  0  2  0  0  0  0  0  0  0  0  0
   -4.1706   -2.4891    2.2110 C   0  0  0  0  0  0  0  0  0  0  0  0
   -3.3772   -2.9420    0.9630 C   0  0  1  0  0  0  0  0  0  0  0  0
   -3.7435   -4.3816    0.5558 C   0  0  0  0  0  0  0  0  0  0  0  0
   -6.3885   -2.7422    1.3534 O   0  0  0  0  0  0  0  0  0  0  0  0
   -7.7185   -2.4224    1.6968 C   0  0  0  0  0  0  0  0  0  0  0  0
   -5.5571    0.7747    1.3136 C   0  0  2  0  0  0  0  0  0  0  0  0
   -4.6028    1.2315    2.4556 C   0  0  0  0  0  0  0  0  0  0  0  0
   -3.9430    2.6067    2.1768 C   0  0  1  0  0  0  0  0  0  0  0  0
   -3.4388    3.2296    3.4876 C   0  0  0  0  0  0  0  0  0  0  0  0
   -2.7788    2.4491    1.1715 C   0  0  0  0  0  0  0  0  0  0  0  0
   -2.3122    3.7714    0.6008 C   0  0  0  0  0  0  0  0  0  0  0  0
   -3.1283    4.4087   -0.4969 C   0  0  0  0  0  0  0  0  0  0  0  0
   -1.1529    4.3159    1.0373 C   0  0  0  0  0  0  0  0  0  0  0  0
   -0.4576    5.4854    0.3657 C   0  0  1  0  0  0  0  0  0  0  0  0
    0.3496    6.3169    1.3831 C   0  0  0  0  0  0  0  0  0  0  0  0
   -0.5557    7.0346    2.3850 C   0  0  0  0  0  0  0  0  0  0  0  0
    0.4454    4.9695   -0.7400 C   0  0  0  0  0  0  0  0  0  0  0  0
    0.2986    5.3939   -1.8766 O   0  0  0  0  0  0  0  0  0  0  0  0
    1.5333    3.9525   -0.4720 C   0  0  0  0  0  0  0  0  0  0  0  0
    1.2141    2.5891   -1.1264 C   0  0  2  0  0  0  0  0  0  0  0  0
   -0.0355    2.1278   -0.6828 O   0  0  0  0  0  0  0  0  0  0  0  0
    2.3058    1.5120   -0.8491 C   0  0  1  0  0  0  0  0  0  0  0  0
    2.6429    1.3586    0.6550 C   0  0  0  0  0  0  0  0  0  0  0  0
   -6.8963    0.8301    1.7864 O   0  0  0  0  0  0  0  0  0  0  0  0
   -7.7382    1.4754    0.8562 C   0  0  0  0  0  0  0  0  0  0  0  0
    5.0839   -2.6975   -1.6488 H   0  0  0  0  0  0  0  0  0  0  0  0
    5.6343   -1.6536    0.7708 H   0  0  0  0  0  0  0  0  0  0  0  0
    6.6839   -2.8531   -0.0291 H   0  0  0  0  0  0  0  0  0  0  0  0
    7.9952   -0.9410    0.9011 H   0  0  0  0  0  0  0  0  0  0  0  0
    7.0678    0.1941   -0.1290 H   0  0  0  0  0  0  0  0  0  0  0  0
    9.2438   -1.8041   -0.8637 H   0  0  0  0  0  0  0  0  0  0  0  0
    7.7386   -2.8365   -2.3402 H   0  0  0  0  0  0  0  0  0  0  0  0
    6.3653   -0.1279   -2.7200 H   0  0  0  0  0  0  0  0  0  0  0  0
    5.9188   -1.6414   -3.5708 H   0  0  0  0  0  0  0  0  0  0  0  0
   10.1317   -1.9982   -4.7830 H   0  0  0  0  0  0  0  0  0  0  0  0
   10.2405   -2.4018   -3.0400 H   0  0  0  0  0  0  0  0  0  0  0  0
    9.1236   -3.3362   -4.1441 H   0  0  0  0  0  0  0  0  0  0  0  0
    4.5882    0.1985   -0.7059 H   0  0  0  0  0  0  0  0  0  0  0  0
    2.8472   -2.9937   -2.0720 H   0  0  0  0  0  0  0  0  0  0  0  0
    1.7352   -1.9898   -3.0494 H   0  0  0  0  0  0  0  0  0  0  0  0
    3.4631   -2.0834   -3.5126 H   0  0  0  0  0  0  0  0  0  0  0  0
    1.7276    0.4660   -2.6162 H   0  0  0  0  0  0  0  0  0  0  0  0
   -0.2024   -2.3667    1.5683 H   0  0  0  0  0  0  0  0  0  0  0  0
    2.5641   -2.5299    0.2430 H   0  0  0  0  0  0  0  0  0  0  0  0
    2.1709   -2.1595    1.9478 H   0  0  0  0  0  0  0  0  0  0  0  0
    1.2690   -4.4433    2.2752 H   0  0  0  0  0  0  0  0  0  0  0  0
    2.9479   -4.5100    1.6261 H   0  0  0  0  0  0  0  0  0  0  0  0
    1.4588   -6.1217    0.4411 H   0  0  0  0  0  0  0  0  0  0  0  0
    2.0849   -4.8654   -0.6825 H   0  0  0  0  0  0  0  0  0  0  0  0
   -0.2949   -5.2202   -1.0904 H   0  0  0  0  0  0  0  0  0  0  0  0
   -0.6994   -4.9842    0.6419 H   0  0  0  0  0  0  0  0  0  0  0  0
   -4.5475   -1.6633   -1.8548 H   0  0  0  0  0  0  0  0  0  0  0  0
   -5.9386   -0.8129   -0.0555 H   0  0  0  0  0  0  0  0  0  0  0  0
   -5.8462   -1.3289    2.8189 H   0  0  0  0  0  0  0  0  0  0  0  0
   -4.3809   -3.3502    2.8831 H   0  0  0  0  0  0  0  0  0  0  0  0
   -3.5338   -1.7929    2.7986 H   0  0  0  0  0  0  0  0  0  0  0  0
   -2.3233   -2.9847    1.2957 H   0  0  0  0  0  0  0  0  0  0  0  0
   -4.8210   -4.4701    0.3075 H   0  0  0  0  0  0  0  0  0  0  0  0
   -3.1513   -4.6961   -0.3283 H   0  0  0  0  0  0  0  0  0  0  0  0
   -3.5141   -5.0832    1.3861 H   0  0  0  0  0  0  0  0  0  0  0  0
   -8.3863   -3.2055    1.2833 H   0  0  0  0  0  0  0  0  0  0  0  0
   -8.0273   -1.4541    1.2512 H   0  0  0  0  0  0  0  0  0  0  0  0
   -7.8595   -2.4126    2.8002 H   0  0  0  0  0  0  0  0  0  0  0  0
   -5.3912    1.4493    0.4366 H   0  0  0  0  0  0  0  0  0  0  0  0
   -3.8000    0.4877    2.6395 H   0  0  0  0  0  0  0  0  0  0  0  0
   -5.1832    1.2832    3.4036 H   0  0  0  0  0  0  0  0  0  0  0  0
   -4.7117    3.2928    1.7553 H   0  0  0  0  0  0  0  0  0  0  0  0
   -4.2815    3.3617    4.1991 H   0  0  0  0  0  0  0  0  0  0  0  0
   -2.6692    2.5814    3.9593 H   0  0  0  0  0  0  0  0  0  0  0  0
   -2.9993    4.2314    3.2982 H   0  0  0  0  0  0  0  0  0  0  0  0
   -3.0911    1.8147    0.3168 H   0  0  0  0  0  0  0  0  0  0  0  0
   -1.9375    1.9026    1.6532 H   0  0  0  0  0  0  0  0  0  0  0  0
   -4.0247    3.7969   -0.7327 H   0  0  0  0  0  0  0  0  0  0  0  0
   -2.5209    4.4990   -1.4218 H   0  0  0  0  0  0  0  0  0  0  0  0
   -3.4749    5.4129   -0.1748 H   0  0  0  0  0  0  0  0  0  0  0  0
   -0.6045    3.8048    1.8254 H   0  0  0  0  0  0  0  0  0  0  0  0
   -1.2100    6.1695   -0.0843 H   0  0  0  0  0  0  0  0  0  0  0  0
    0.9420    7.0858    0.8399 H   0  0  0  0  0  0  0  0  0  0  0  0
    1.0625    5.6734    1.9424 H   0  0  0  0  0  0  0  0  0  0  0  0
    0.0645    7.6492    3.0709 H   0  0  0  0  0  0  0  0  0  0  0  0
   -1.2660    7.7039    1.8547 H   0  0  0  0  0  0  0  0  0  0  0  0
   -1.1270    6.3002    2.9913 H   0  0  0  0  0  0  0  0  0  0  0  0
    2.4951    4.3414   -0.8704 H   0  0  0  0  0  0  0  0  0  0  0  0
    1.6554    3.8333    0.6221 H   0  0  0  0  0  0  0  0  0  0  0  0
    1.1915    2.7536   -2.2321 H   0  0  0  0  0  0  0  0  0  0  0  0
   -0.7005    2.3393   -1.3891 H   0  0  0  0  0  0  0  0  0  0  0  0
    3.2245    1.9017   -1.3430 H   0  0  0  0  0  0  0  0  0  0  0  0
    2.9235    0.3179    0.9169 H   0  0  0  0  0  0  0  0  0  0  0  0
    3.5007    2.0156    0.9137 H   0  0  0  0  0  0  0  0  0  0  0  0
    1.8005    1.6604    1.3074 H   0  0  0  0  0  0  0  0  0  0  0  0
   -8.7797    1.4385    1.2356 H   0  0  0  0  0  0  0  0  0  0  0  0
   -7.4540    2.5451    0.7444 H   0  0  0  0  0  0  0  0  0  0  0  0
   -7.7178    0.9610   -0.1301 H   0  0  0  0  0  0  0  0  0  0  0  0
  1  2  1  0
  2  3  1  0
  3  4  1  0
  4  5  1  0
  4  6  1  0
  6  7  1  0
  6  8  1  0
  8  9  1  0
  1 10  1  0
 10 11  2  0
 11 12  1  0
 11 13  1  0
 13 14  1  0
 14 15  1  0
 15 16  2  0
 15 17  1  0
 17 18  1  0
 18 19  1  0
 19 20  1  0
 20 21  1  0
 21 22  1  0
 22 23  1  0
 23 24  2  0
 23 25  1  0
 25 26  2  0
 25 27  1  0
 27 28  1  6
 27 29  1  0
 29 30  1  0
 30 31  1  0
 31 32  1  0
 32 33  1  0
 33 34  1  0
 31 35  1  0
 35 36  1  0
 30 37  1  0
 37 38  1  0
 38 39  1  0
 39 40  1  0
 39 41  1  0
 41 42  1  0
 42 43  1  0
 42 44  2  0
 44 45  1  0
 45 46  1  0
 46 47  1  0
 45 48  1  0
 48 49  2  0
 48 50  1  0
 50 51  1  0
 51 52  1  0
 51 53  1  0
 53 54  1  0
 37 55  1  0
 55 56  1  0
  7  1  1  0
 53 13  1  0
 22 17  1  0
 33 27  1  0
  1 57  1  6
  2 58  1  0
  2 59  1  0
  3 60  1  0
  3 61  1  0
  4 62  1  1
  6 63  1  1
  7 64  1  0
  7 65  1  0
  9 66  1  0
  9 67  1  0
  9 68  1  0
 10 69  1  0
 12 70  1  0
 12 71  1  0
 12 72  1  0
 13 73  1  6
 17 74  1  1
 18 75  1  0
 18 76  1  0
 19 77  1  0
 19 78  1  0
 20 79  1  0
 20 80  1  0
 21 81  1  0
 21 82  1  0
 28 83  1  0
 30 84  1  6
 31 85  1  1
 32 86  1  0
 32 87  1  0
 33 88  1  1
 34 89  1  0
 34 90  1  0
 34 91  1  0
 36 92  1  0
 36 93  1  0
 36 94  1  0
 37 95  1  6
 38 96  1  0
 38 97  1  0
 39 98  1  6
 40 99  1  0
 40100  1  0
 40101  1  0
 41102  1  0
 41103  1  0
 43104  1  0
 43105  1  0
 43106  1  0
 44107  1  0
 45108  1  6
 46109  1  0
 46110  1  0
 47111  1  0
 47112  1  0
 47113  1  0
 50114  1  0
 50115  1  0
 51116  1  6
 52117  1  0
 53118  1  6
 54119  1  0
 54120  1  0
 54121  1  0
 56122  1  0
 56123  1  0
 56124  1  0
M  END
$$$$
