
     RDKit          3D

 73 81  0  0  0  0  0  0  0  0999 V2000
    1.6566   -2.8574    1.0970 C   0  0  0  0  0  0  0  0  0  0  0  0
    0.8094   -1.8200    0.6409 O   0  0  0  0  0  0  0  0  0  0  0  0
    1.1236   -1.4268   -0.6903 C   0  0  2  0  0  0  0  0  0  0  0  0
    1.9082   -0.0938   -0.6729 C   0  0  1  0  0  0  0  0  0  0  0  0
    0.9288    1.0516   -0.4536 C   0  0  0  0  0  0  0  0  0  0  0  0
   -0.0268    1.1200   -1.6525 C   0  0  1  0  0  0  0  0  0  0  0  0
   -0.2247   -0.1045   -2.3375 O   0  0  0  0  0  0  0  0  0  0  0  0
   -0.2101   -1.2908   -1.5451 C   0  0  1  0  0  0  0  0  0  0  0  0
   -0.2467   -2.4078   -2.6185 C   0  0  0  0  0  0  0  0  0  0  0  0
   -1.4454   -1.3837   -0.6974 N   0  0  0  0  0  0  0  0  0  0  0  0
   -1.9848   -2.5023   -0.1083 C   0  0  0  0  0  0  0  0  0  0  0  0
   -3.2202   -2.2403    0.4623 C   0  0  0  0  0  0  0  0  0  0  0  0
   -3.9680   -3.2212    1.1181 C   0  0  0  0  0  0  0  0  0  0  0  0
   -3.4320   -4.5124    1.2036 C   0  0  0  0  0  0  0  0  0  0  0  0
   -2.1707   -4.7943    0.6517 C   0  0  0  0  0  0  0  0  0  0  0  0
   -1.4366   -3.7921   -0.0033 C   0  0  0  0  0  0  0  0  0  0  0  0
   -3.4694   -0.9089    0.2574 C   0  0  0  0  0  0  0  0  0  0  0  0
   -2.3702   -0.4087   -0.4326 C   0  0  0  0  0  0  0  0  0  0  0  0
   -2.3278    0.9699   -0.7131 C   0  0  0  0  0  0  0  0  0  0  0  0
   -3.3744    1.8136   -0.3278 C   0  0  0  0  0  0  0  0  0  0  0  0
   -2.9577    3.1001   -0.6523 C   0  0  0  0  0  0  0  0  0  0  0  0
   -1.6935    2.9671   -1.2058 C   0  0  0  0  0  0  0  0  0  0  0  0
   -0.9466    4.0866   -1.5911 C   0  0  0  0  0  0  0  0  0  0  0  0
   -1.5158    5.3572   -1.4175 C   0  0  0  0  0  0  0  0  0  0  0  0
   -2.7987    5.4936   -0.8544 C   0  0  0  0  0  0  0  0  0  0  0  0
   -3.5292    4.3616   -0.4568 C   0  0  0  0  0  0  0  0  0  0  0  0
   -1.3138    1.6678   -1.2548 N   0  0  0  0  0  0  0  0  0  0  0  0
   -4.5027    1.2762    0.3282 C   0  0  0  0  0  0  0  0  0  0  0  0
   -4.5428   -0.0827    0.6327 C   0  0  0  0  0  0  0  0  0  0  0  0
   -5.8019   -0.4435    1.3674 C   0  0  0  0  0  0  0  0  0  0  0  0
   -6.5178    0.8257    1.4561 N   0  0  0  0  0  0  0  0  0  0  0  0
   -5.7433    1.8377    0.8297 C   0  0  0  0  0  0  0  0  0  0  0  0
   -6.1416    3.0215    0.6981 O   0  0  0  0  0  0  0  0  0  0  0  0
    3.0135   -0.0903    0.3095 N   0  0  0  0  0  0  0  0  0  0  0  0
    2.8184    0.3806    1.6898 C   0  0  0  0  0  0  0  0  0  0  0  0
    4.3115   -0.5658   -0.1061 C   0  0  0  0  0  0  0  0  0  0  0  0
    4.3882   -1.5432   -0.8997 O   0  0  0  0  0  0  0  0  0  0  0  0
    5.5613    0.0706    0.3681 C   0  0  0  0  0  0  0  0  0  0  0  0
    5.6198    1.4568    0.5968 C   0  0  0  0  0  0  0  0  0  0  0  0
    6.8081    2.0510    1.0328 C   0  0  0  0  0  0  0  0  0  0  0  0
    7.9491    1.2705    1.2344 C   0  0  0  0  0  0  0  0  0  0  0  0
    7.9057   -0.1050    0.9938 C   0  0  0  0  0  0  0  0  0  0  0  0
    6.7197   -0.7035    0.5571 C   0  0  0  0  0  0  0  0  0  0  0  0
    1.2912   -3.1995    2.0866 H   0  0  0  0  0  0  0  0  0  0  0  0
    2.6972   -2.5005    1.2299 H   0  0  0  0  0  0  0  0  0  0  0  0
    1.6494   -3.7353    0.4160 H   0  0  0  0  0  0  0  0  0  0  0  0
    1.7993   -2.1570   -1.1994 H   0  0  0  0  0  0  0  0  0  0  0  0
    2.3534    0.0560   -1.6853 H   0  0  0  0  0  0  0  0  0  0  0  0
    0.3538    0.8905    0.4850 H   0  0  0  0  0  0  0  0  0  0  0  0
    1.4767    2.0153   -0.3629 H   0  0  0  0  0  0  0  0  0  0  0  0
    0.4363    1.7996   -2.3983 H   0  0  0  0  0  0  0  0  0  0  0  0
    0.1238   -3.3857   -2.2668 H   0  0  0  0  0  0  0  0  0  0  0  0
    0.4142   -2.1379   -3.4714 H   0  0  0  0  0  0  0  0  0  0  0  0
   -1.2769   -2.5296   -3.0170 H   0  0  0  0  0  0  0  0  0  0  0  0
   -4.9313   -3.0089    1.5566 H   0  0  0  0  0  0  0  0  0  0  0  0
   -3.9862   -5.2934    1.7078 H   0  0  0  0  0  0  0  0  0  0  0  0
   -1.7569   -5.7904    0.7420 H   0  0  0  0  0  0  0  0  0  0  0  0
   -0.4600   -4.0400   -0.3660 H   0  0  0  0  0  0  0  0  0  0  0  0
    0.0478    3.9948   -2.0049 H   0  0  0  0  0  0  0  0  0  0  0  0
   -0.9605    6.2392   -1.7093 H   0  0  0  0  0  0  0  0  0  0  0  0
   -3.2209    6.4806   -0.7156 H   0  0  0  0  0  0  0  0  0  0  0  0
   -4.4927    4.4984   -0.0051 H   0  0  0  0  0  0  0  0  0  0  0  0
   -6.3992   -1.1778    0.7870 H   0  0  0  0  0  0  0  0  0  0  0  0
   -5.5700   -0.8191    2.3862 H   0  0  0  0  0  0  0  0  0  0  0  0
   -7.4586    0.9619    1.8879 H   0  0  0  0  0  0  0  0  0  0  0  0
    2.8083    1.4896    1.7157 H   0  0  0  0  0  0  0  0  0  0  0  0
    3.6283    0.0102    2.3539 H   0  0  0  0  0  0  0  0  0  0  0  0
    1.8600    0.0041    2.1006 H   0  0  0  0  0  0  0  0  0  0  0  0
    4.7555    2.0831    0.4175 H   0  0  0  0  0  0  0  0  0  0  0  0
    6.8461    3.1185    1.2074 H   0  0  0  0  0  0  0  0  0  0  0  0
    8.8682    1.7324    1.5710 H   0  0  0  0  0  0  0  0  0  0  0  0
    8.7916   -0.7081    1.1453 H   0  0  0  0  0  0  0  0  0  0  0  0
    6.7030   -1.7716    0.3787 H   0  0  0  0  0  0  0  0  0  0  0  0
  1  2  1  0
  2  3  1  0
  3  4  1  0
  4  5  1  0
  5  6  1  0
  6  7  1  0
  7  8  1  0
  8  9  1  6
  8 10  1  0
 10 11  1  0
 11 12  2  0
 12 13  1  0
 13 14  2  0
 14 15  1  0
 15 16  2  0
 12 17  1  0
 17 18  1  0
 18 19  2  0
 19 20  1  0
 20 21  1  0
 21 22  2  0
 22 23  1  0
 23 24  2  0
 24 25  1  0
 25 26  2  0
 22 27  1  0
 20 28  2  0
 28 29  1  0
 29 30  1  0
 30 31  1  0
 31 32  1  0
 32 33  2  0
  4 34  1  0
 34 35  1  0
 34 36  1  0
 36 37  2  0
 36 38  1  0
 38 39  2  0
 39 40  1  0
 40 41  2  0
 41 42  1  0
 42 43  2  0
  8  3  1  0
 18 10  1  0
 27 19  1  0
 32 28  1  0
 43 38  1  0
 27  6  1  0
 16 11  1  0
 29 17  2  0
 26 21  1  0
  1 44  1  0
  1 45  1  0
  1 46  1  0
  3 47  1  6
  4 48  1  6
  5 49  1  0
  5 50  1  0
  6 51  1  6
  9 52  1  0
  9 53  1  0
  9 54  1  0
 13 55  1  0
 14 56  1  0
 15 57  1  0
 16 58  1  0
 23 59  1  0
 24 60  1  0
 25 61  1  0
 26 62  1  0
 30 63  1  0
 30 64  1  0
 31 65  1  0
 35 66  1  0
 35 67  1  0
 35 68  1  0
 39 69  1  0
 40 70  1  0
 41 71  1  0
 42 72  1  0
 43 73  1  0
M  END
$$$$
