
     RDKit          3D

 37 39  0  0  0  0  0  0  0  0999 V2000
   -4.8286    2.2924    0.0366 O   0  0  0  0  0  0  0  0  0  0  0  0
   -3.5149    2.2865    0.4944 C   0  0  0  0  0  0  0  0  0  0  0  0
   -3.2729    2.4846    1.7150 O   0  0  0  0  0  0  0  0  0  0  0  0
   -2.3882    2.0663   -0.4675 C   0  0  0  0  0  0  0  0  0  0  0  0
   -1.5543    0.9158   -0.0437 N   0  0  0  0  0  0  0  0  0  0  0  0
   -0.3867    1.1614    0.6441 C   0  0  0  0  0  0  0  0  0  0  0  0
   -0.0788    2.3502    0.9444 O   0  0  0  0  0  0  0  0  0  0  0  0
    0.4462    0.1349    1.0180 N   0  0  0  0  0  0  0  0  0  0  0  0
    1.7278    0.4165    1.7051 C   0  0  0  0  0  0  0  0  0  0  0  0
    2.8920    0.2677    0.7538 C   0  0  0  0  0  0  0  0  0  0  0  0
    3.1628    1.2527   -0.2151 C   0  0  0  0  0  0  0  0  0  0  0  0
    2.4045    2.3737   -0.2963 F   0  0  0  0  0  0  0  0  0  0  0  0
    4.2305    1.0907   -1.1042 C   0  0  0  0  0  0  0  0  0  0  0  0
    5.0359   -0.0496   -1.0367 C   0  0  0  0  0  0  0  0  0  0  0  0
    6.4916   -0.2657   -2.2539 Br  0  0  0  0  0  0  0  0  0  0  0  0
    4.7759   -1.0304   -0.0759 C   0  0  0  0  0  0  0  0  0  0  0  0
    3.7107   -0.8740    0.8153 C   0  0  0  0  0  0  0  0  0  0  0  0
    0.1019   -1.1613    0.7465 C   0  0  0  0  0  0  0  0  0  0  0  0
    0.8634   -2.1057    1.1006 O   0  0  0  0  0  0  0  0  0  0  0  0
   -1.0980   -1.4523    0.0873 C   0  0  0  0  0  0  0  0  0  0  0  0
   -1.9397   -0.3846   -0.3010 C   0  0  0  0  0  0  0  0  0  0  0  0
   -3.1684   -0.6993   -0.9367 C   0  0  0  0  0  0  0  0  0  0  0  0
   -3.5268   -2.0251   -1.1940 C   0  0  0  0  0  0  0  0  0  0  0  0
   -5.0526   -2.3845   -1.9828 Cl  0  0  0  0  0  0  0  0  0  0  0  0
   -2.6781   -3.0639   -0.8218 C   0  0  0  0  0  0  0  0  0  0  0  0
   -1.4728   -2.7841   -0.1829 C   0  0  0  0  0  0  0  0  0  0  0  0
   -5.6004    2.4441    0.6749 H   0  0  0  0  0  0  0  0  0  0  0  0
   -2.7694    1.9200   -1.4997 H   0  0  0  0  0  0  0  0  0  0  0  0
   -1.7974    3.0044   -0.5367 H   0  0  0  0  0  0  0  0  0  0  0  0
    1.8444   -0.2673    2.5752 H   0  0  0  0  0  0  0  0  0  0  0  0
    1.7490    1.4345    2.1494 H   0  0  0  0  0  0  0  0  0  0  0  0
    4.4326    1.8530   -1.8457 H   0  0  0  0  0  0  0  0  0  0  0  0
    5.3982   -1.9142   -0.0190 H   0  0  0  0  0  0  0  0  0  0  0  0
    3.5264   -1.6445    1.5533 H   0  0  0  0  0  0  0  0  0  0  0  0
   -3.8735    0.0622   -1.2300 H   0  0  0  0  0  0  0  0  0  0  0  0
   -2.9547   -4.0915   -1.0210 H   0  0  0  0  0  0  0  0  0  0  0  0
   -0.8375   -3.6136    0.1027 H   0  0  0  0  0  0  0  0  0  0  0  0
  1  2  1  0
  2  3  2  0
  2  4  1  0
  4  5  1  0
  5  6  1  0
  6  7  2  0
  6  8  1  0
  8  9  1  0
  9 10  1  0
 10 11  2  0
 11 12  1  0
 11 13  1  0
 13 14  2  0
 14 15  1  0
 14 16  1  0
 16 17  2  0
  8 18  1  0
 18 19  2  0
 18 20  1  0
 20 21  2  0
 21 22  1  0
 22 23  2  0
 23 24  1  0
 23 25  1  0
 25 26  2  0
 21  5  1  0
 17 10  1  0
 26 20  1  0
  1 27  1  0
  4 28  1  0
  4 29  1  0
  9 30  1  0
  9 31  1  0
 13 32  1  0
 16 33  1  0
 17 34  1  0
 22 35  1  0
 25 36  1  0
 26 37  1  0
M  END
$$$$
