
     RDKit          3D

 27 27  0  0  0  0  0  0  0  0999 V2000
    4.9656   -1.1007   -0.0037 C   0  0  0  0  0  0  0  0  0  0  0  0
    3.4491   -1.2621   -0.0488 C   0  0  0  0  0  0  0  0  0  0  0  0
    2.7457    0.0925   -0.0093 C   0  0  0  0  0  0  0  0  0  0  0  0
    1.3364   -0.1053   -0.0532 O   0  0  0  0  0  0  0  0  0  0  0  0
    0.4223    0.9537   -0.0315 C   0  0  0  0  0  0  0  0  0  0  0  0
    0.8373    2.1443    0.0293 O   0  0  0  0  0  0  0  0  0  0  0  0
   -1.0302    0.6741   -0.0800 C   0  0  0  0  0  0  0  0  0  0  0  0
   -1.9644    1.7245   -0.0592 C   0  0  0  0  0  0  0  0  0  0  0  0
   -3.3400    1.4575   -0.1052 C   0  0  0  0  0  0  0  0  0  0  0  0
   -4.2573    2.5073   -0.0839 O   0  0  0  0  0  0  0  0  0  0  0  0
   -3.7933    0.1296   -0.1728 C   0  0  0  0  0  0  0  0  0  0  0  0
   -5.1571   -0.1610   -0.2195 O   0  0  0  0  0  0  0  0  0  0  0  0
   -2.8688   -0.9221   -0.1939 C   0  0  0  0  0  0  0  0  0  0  0  0
   -3.3239   -2.2379   -0.2611 O   0  0  0  0  0  0  0  0  0  0  0  0
   -1.4946   -0.6501   -0.1477 C   0  0  0  0  0  0  0  0  0  0  0  0
    5.2714   -0.5875    0.9329 H   0  0  0  0  0  0  0  0  0  0  0  0
    5.3171   -0.5109   -0.8771 H   0  0  0  0  0  0  0  0  0  0  0  0
    5.4467   -2.1010   -0.0339 H   0  0  0  0  0  0  0  0  0  0  0  0
    3.1216   -1.8735    0.8199 H   0  0  0  0  0  0  0  0  0  0  0  0
    3.1671   -1.7974   -0.9814 H   0  0  0  0  0  0  0  0  0  0  0  0
    3.0151    0.6275    0.9279 H   0  0  0  0  0  0  0  0  0  0  0  0
    3.0608    0.7041   -0.8832 H   0  0  0  0  0  0  0  0  0  0  0  0
   -1.6296    2.7532   -0.0072 H   0  0  0  0  0  0  0  0  0  0  0  0
   -3.9574    3.4740   -0.0355 H   0  0  0  0  0  0  0  0  0  0  0  0
   -5.8636    0.5647   -0.2066 H   0  0  0  0  0  0  0  0  0  0  0  0
   -2.6816   -3.0215   -0.2780 H   0  0  0  0  0  0  0  0  0  0  0  0
   -0.7943   -1.4759   -0.1650 H   0  0  0  0  0  0  0  0  0  0  0  0
  1  2  1  0
  2  3  1  0
  3  4  1  0
  4  5  1  0
  5  6  2  0
  5  7  1  0
  7  8  2  0
  8  9  1  0
  9 10  1  0
  9 11  2  0
 11 12  1  0
 11 13  1  0
 13 14  1  0
 13 15  2  0
 15  7  1  0
  1 16  1  0
  1 17  1  0
  1 18  1  0
  2 19  1  0
  2 20  1  0
  3 21  1  0
  3 22  1  0
  8 23  1  0
 10 24  1  0
 12 25  1  0
 14 26  1  0
 15 27  1  0
M  END
$$$$
