
     RDKit          3D

 57 61  0  0  0  0  0  0  0  0999 V2000
   -6.7738    0.0002   -0.9093 C   0  0  1  0  0  0  0  0  0  0  0  0
   -7.9842   -0.8708   -0.5486 C   0  0  0  0  0  0  0  0  0  0  0  0
   -6.2374    0.7591    0.3333 C   0  0  0  0  0  0  0  0  0  0  0  0
   -5.0780    0.0135    1.0039 C   0  0  0  0  0  0  0  0  0  0  0  0
   -3.8665   -0.1565    0.0414 C   0  0  2  0  0  0  0  0  0  0  0  0
   -4.2953   -0.2278   -1.4454 C   0  0  0  0  0  0  0  0  0  0  0  0
   -5.6844   -0.8538   -1.6060 C   0  0  0  0  0  0  0  0  0  0  0  0
   -3.0679   -1.3545    0.3733 N   0  0  0  0  0  0  0  0  0  0  0  0
   -2.2974   -1.2107    1.6173 C   0  0  0  0  0  0  0  0  0  0  0  0
   -1.1048   -0.3172    1.4052 C   0  0  0  0  0  0  0  0  0  0  0  0
   -0.0475   -0.7447    0.5741 C   0  0  0  0  0  0  0  0  0  0  0  0
    1.0358    0.1100    0.3714 C   0  0  0  0  0  0  0  0  0  0  0  0
    1.0723    1.3555    0.9726 C   0  0  0  0  0  0  0  0  0  0  0  0
    0.0564    1.8006    1.8131 C   0  0  0  0  0  0  0  0  0  0  0  0
   -1.0462    0.9569    2.0209 C   0  0  0  0  0  0  0  0  0  0  0  0
    2.3207    1.9786    0.6057 C   0  0  0  0  0  0  0  0  0  0  0  0
    3.0320    1.1247   -0.1752 C   0  0  0  0  0  0  0  0  0  0  0  0
    2.2942   -0.1638   -0.4111 C   0  0  0  0  0  0  0  0  0  0  0  0
    4.3573    1.3729    0.1542 C   0  0  0  0  0  0  0  0  0  0  0  0
    4.3936    2.3506    1.0934 N   0  0  0  0  0  0  0  0  0  0  0  0
    3.1462    2.7034    1.3748 N   0  0  0  0  0  0  0  0  0  0  0  0
    5.5462    0.6040   -0.2807 C   0  0  0  0  0  0  0  0  0  0  0  0
    6.7563    0.7197    0.4231 C   0  0  0  0  0  0  0  0  0  0  0  0
    7.8852    0.0011    0.0190 C   0  0  0  0  0  0  0  0  0  0  0  0
    7.8295   -0.8434   -1.1019 C   0  0  0  0  0  0  0  0  0  0  0  0
    6.6222   -0.9511   -1.8130 C   0  0  0  0  0  0  0  0  0  0  0  0
    5.4934   -0.2327   -1.4084 C   0  0  0  0  0  0  0  0  0  0  0  0
    9.0266   -1.6024   -1.5261 C   0  0  0  0  0  0  0  0  0  0  0  0
   10.2191   -1.4868   -0.8163 O   0  0  0  0  0  0  0  0  0  0  0  0
    8.9789   -2.3602   -2.5328 O   0  0  0  0  0  0  0  0  0  0  0  0
   -7.1260    0.7646   -1.6378 H   0  0  0  0  0  0  0  0  0  0  0  0
   -7.7087   -1.6259    0.2185 H   0  0  0  0  0  0  0  0  0  0  0  0
   -8.8066   -0.2388   -0.1507 H   0  0  0  0  0  0  0  0  0  0  0  0
   -8.3598   -1.3964   -1.4526 H   0  0  0  0  0  0  0  0  0  0  0  0
   -5.8738    1.7627    0.0193 H   0  0  0  0  0  0  0  0  0  0  0  0
   -7.0465    0.9321    1.0764 H   0  0  0  0  0  0  0  0  0  0  0  0
   -4.7592    0.5835    1.9032 H   0  0  0  0  0  0  0  0  0  0  0  0
   -5.4500   -0.9754    1.3503 H   0  0  0  0  0  0  0  0  0  0  0  0
   -3.2264    0.7495    0.1325 H   0  0  0  0  0  0  0  0  0  0  0  0
   -3.5538   -0.8104   -2.0349 H   0  0  0  0  0  0  0  0  0  0  0  0
   -4.3161    0.7979   -1.8767 H   0  0  0  0  0  0  0  0  0  0  0  0
   -5.9238   -0.9475   -2.6876 H   0  0  0  0  0  0  0  0  0  0  0  0
   -5.6579   -1.8820   -1.1811 H   0  0  0  0  0  0  0  0  0  0  0  0
   -3.7004   -2.1839    0.4644 H   0  0  0  0  0  0  0  0  0  0  0  0
   -2.9380   -0.8456    2.4491 H   0  0  0  0  0  0  0  0  0  0  0  0
   -1.9260   -2.2117    1.9287 H   0  0  0  0  0  0  0  0  0  0  0  0
   -0.0674   -1.7201    0.1039 H   0  0  0  0  0  0  0  0  0  0  0  0
    0.1108    2.7716    2.2879 H   0  0  0  0  0  0  0  0  0  0  0  0
   -1.8537    1.2937    2.6589 H   0  0  0  0  0  0  0  0  0  0  0  0
    2.0716   -0.3039   -1.4896 H   0  0  0  0  0  0  0  0  0  0  0  0
    2.8428   -1.0288    0.0188 H   0  0  0  0  0  0  0  0  0  0  0  0
    2.8753    3.3194    2.1729 H   0  0  0  0  0  0  0  0  0  0  0  0
    6.8297    1.3609    1.2927 H   0  0  0  0  0  0  0  0  0  0  0  0
    8.8014    0.1082    0.5861 H   0  0  0  0  0  0  0  0  0  0  0  0
    6.5496   -1.5876   -2.6862 H   0  0  0  0  0  0  0  0  0  0  0  0
    4.5858   -0.3227   -1.9899 H   0  0  0  0  0  0  0  0  0  0  0  0
   11.0445   -2.0021   -1.0982 H   0  0  0  0  0  0  0  0  0  0  0  0
  1  2  1  0
  1  3  1  0
  3  4  1  0
  4  5  1  0
  5  6  1  0
  6  7  1  0
  5  8  1  0
  8  9  1  0
  9 10  1  0
 10 11  2  0
 11 12  1  0
 12 13  2  0
 13 14  1  0
 14 15  2  0
 13 16  1  0
 16 17  2  0
 17 18  1  0
 17 19  1  0
 19 20  2  0
 20 21  1  0
 19 22  1  0
 22 23  2  0
 23 24  1  0
 24 25  2  0
 25 26  1  0
 26 27  2  0
 25 28  1  0
 28 29  1  0
 28 30  2  0
  7  1  1  0
 15 10  1  0
 21 16  1  0
 27 22  1  0
 18 12  1  0
  1 31  1  6
  2 32  1  0
  2 33  1  0
  2 34  1  0
  3 35  1  0
  3 36  1  0
  4 37  1  0
  4 38  1  0
  5 39  1  6
  6 40  1  0
  6 41  1  0
  7 42  1  0
  7 43  1  0
  8 44  1  0
  9 45  1  0
  9 46  1  0
 11 47  1  0
 14 48  1  0
 15 49  1  0
 18 50  1  0
 18 51  1  0
 21 52  1  0
 23 53  1  0
 24 54  1  0
 26 55  1  0
 27 56  1  0
 29 57  1  0
M  END
$$$$
