
     RDKit          3D

 22 23  0  0  0  0  0  0  0  0999 V2000
   -0.6373   -1.6395    0.5752 C   0  0  2  0  0  0  0  0  0  0  0  0
   -0.7879   -2.6552   -0.3797 O   0  0  0  0  0  0  0  0  0  0  0  0
   -1.7974   -0.6046    0.4766 C   0  0  0  0  0  0  0  0  0  0  0  0
   -1.1891    0.6813    0.1292 N   0  0  0  0  0  0  0  0  0  0  0  0
   -1.9313    1.9239   -0.0546 C   0  0  0  0  0  0  0  0  0  0  0  0
    0.2144    0.5301    0.0149 C   0  0  0  0  0  0  0  0  0  0  0  0
    1.1039    1.4877   -0.2798 C   0  0  0  0  0  0  0  0  0  0  0  0
    2.5343    1.1183   -0.3404 C   0  0  0  0  0  0  0  0  0  0  0  0
    3.4058    1.9847   -0.6160 O   0  0  0  0  0  0  0  0  0  0  0  0
    2.9184   -0.2874   -0.0694 C   0  0  0  0  0  0  0  0  0  0  0  0
    4.1249   -0.6466   -0.1076 O   0  0  0  0  0  0  0  0  0  0  0  0
    1.8555   -1.2651    0.2485 C   0  0  0  0  0  0  0  0  0  0  0  0
    0.5867   -0.8405    0.2742 C   0  0  0  0  0  0  0  0  0  0  0  0
   -0.5649   -2.0645    1.6027 H   0  0  0  0  0  0  0  0  0  0  0  0
   -1.5034   -3.2532   -0.0396 H   0  0  0  0  0  0  0  0  0  0  0  0
   -2.5320   -0.8937   -0.3063 H   0  0  0  0  0  0  0  0  0  0  0  0
   -2.3187   -0.5189    1.4543 H   0  0  0  0  0  0  0  0  0  0  0  0
   -1.5807    2.6806    0.6780 H   0  0  0  0  0  0  0  0  0  0  0  0
   -3.0173    1.7511    0.1007 H   0  0  0  0  0  0  0  0  0  0  0  0
   -1.7729    2.3049   -1.0851 H   0  0  0  0  0  0  0  0  0  0  0  0
    0.7910    2.5066   -0.4675 H   0  0  0  0  0  0  0  0  0  0  0  0
    2.0980   -2.3000    0.4548 H   0  0  0  0  0  0  0  0  0  0  0  0
  1  2  1  0
  1  3  1  0
  3  4  1  0
  4  5  1  0
  4  6  1  0
  6  7  2  0
  7  8  1  0
  8  9  2  0
  8 10  1  0
 10 11  2  0
 10 12  1  0
 12 13  2  0
 13  1  1  0
 13  6  1  0
  1 14  1  1
  2 15  1  0
  3 16  1  0
  3 17  1  0
  5 18  1  0
  5 19  1  0
  5 20  1  0
  7 21  1  0
 12 22  1  0
M  END
$$$$
