
     RDKit          3D

 63 66  0  0  0  0  0  0  0  0999 V2000
    3.5883    1.8651    0.1382 C   0  0  0  0  0  0  0  0  0  0  0  0
    2.7888    0.9365    1.0521 C   0  0  1  0  0  0  0  0  0  0  0  0
    1.4046    1.1390    0.8127 O   0  0  0  0  0  0  0  0  0  0  0  0
    0.6613    1.1865    2.0215 C   0  0  1  0  0  0  0  0  0  0  0  0
    0.8862    2.4115    2.7048 O   0  0  0  0  0  0  0  0  0  0  0  0
    0.4323    3.5127    1.9391 C   0  0  0  0  0  0  0  0  0  0  0  0
   -1.0744    3.4147    1.6545 C   0  0  0  0  0  0  0  0  0  0  0  0
   -1.4110    2.1429    0.9869 N   0  0  0  0  0  0  0  0  0  0  0  0
   -1.0772    2.1522   -0.4605 C   0  0  0  0  0  0  0  0  0  0  0  0
   -2.3422    2.1220   -1.2545 C   0  0  0  0  0  0  0  0  0  0  0  0
   -3.2638    3.1144   -1.2366 N   0  0  0  0  0  0  0  0  0  0  0  0
   -4.2385    2.5938   -2.0113 C   0  0  0  0  0  0  0  0  0  0  0  0
   -5.3252    3.1843   -2.2481 O   0  0  0  0  0  0  0  0  0  0  0  0
   -3.9266    1.3731   -2.4772 N   0  0  0  0  0  0  0  0  0  0  0  0
   -2.7411    1.0665   -1.9917 N   0  0  0  0  0  0  0  0  0  0  0  0
   -4.9590    0.2632   -3.3630 P   0  0  0  0  0  5  0  0  0  0  0  0
   -5.9710    1.1254   -4.4107 O   0  0  0  0  0  0  0  0  0  0  0  0
   -5.8924   -0.6304   -2.2702 O   0  0  0  0  0  0  0  0  0  0  0  0
   -4.1009   -0.6825   -4.1717 O   0  0  0  0  0  0  0  0  0  0  0  0
   -0.8611    0.9962    1.7537 C   0  0  1  0  0  0  0  0  0  0  0  0
   -1.2948   -0.3437    1.1573 C   0  0  0  0  0  0  0  0  0  0  0  0
   -0.4182   -1.4381    1.0078 C   0  0  0  0  0  0  0  0  0  0  0  0
   -0.8658   -2.6386    0.4487 C   0  0  0  0  0  0  0  0  0  0  0  0
   -2.1995   -2.7782    0.0614 C   0  0  0  0  0  0  0  0  0  0  0  0
   -2.6303   -3.9432   -0.4820 F   0  0  0  0  0  0  0  0  0  0  0  0
   -3.0929   -1.7231    0.2515 C   0  0  0  0  0  0  0  0  0  0  0  0
   -2.6488   -0.5214    0.8095 C   0  0  0  0  0  0  0  0  0  0  0  0
    3.1433   -0.5048    0.7602 C   0  0  0  0  0  0  0  0  0  0  0  0
    3.8866   -1.2538    1.6850 C   0  0  0  0  0  0  0  0  0  0  0  0
    4.2137   -2.5946    1.4238 C   0  0  0  0  0  0  0  0  0  0  0  0
    3.7365   -3.2002    0.2490 C   0  0  0  0  0  0  0  0  0  0  0  0
    2.9722   -2.4708   -0.6768 C   0  0  0  0  0  0  0  0  0  0  0  0
    2.7165   -1.1128   -0.4326 C   0  0  0  0  0  0  0  0  0  0  0  0
    2.4969   -3.1153   -1.9552 C   0  0  0  0  0  0  0  0  0  0  0  0
    2.2822   -4.4704   -1.7713 F   0  0  0  0  0  0  0  0  0  0  0  0
    3.4543   -2.9398   -2.9365 F   0  0  0  0  0  0  0  0  0  0  0  0
    1.3081   -2.5446   -2.3768 F   0  0  0  0  0  0  0  0  0  0  0  0
    4.9792   -3.4038    2.4411 C   0  0  0  0  0  0  0  0  0  0  0  0
    5.7196   -4.3955    1.8211 F   0  0  0  0  0  0  0  0  0  0  0  0
    5.8501   -2.5974    3.1535 F   0  0  0  0  0  0  0  0  0  0  0  0
    4.0875   -3.9900    3.3197 F   0  0  0  0  0  0  0  0  0  0  0  0
    4.6778    1.6899    0.2693 H   0  0  0  0  0  0  0  0  0  0  0  0
    3.3191    1.6992   -0.9268 H   0  0  0  0  0  0  0  0  0  0  0  0
    3.3706    2.9230    0.3956 H   0  0  0  0  0  0  0  0  0  0  0  0
    3.0894    1.1993    2.0959 H   0  0  0  0  0  0  0  0  0  0  0  0
    0.9748    0.3662    2.7080 H   0  0  0  0  0  0  0  0  0  0  0  0
    1.0113    3.6104    0.9956 H   0  0  0  0  0  0  0  0  0  0  0  0
    0.6180    4.4400    2.5205 H   0  0  0  0  0  0  0  0  0  0  0  0
   -1.6292    3.4782    2.6161 H   0  0  0  0  0  0  0  0  0  0  0  0
   -1.4031    4.2813    1.0392 H   0  0  0  0  0  0  0  0  0  0  0  0
   -0.4613    1.2777   -0.7584 H   0  0  0  0  0  0  0  0  0  0  0  0
   -0.5016    3.0557   -0.7587 H   0  0  0  0  0  0  0  0  0  0  0  0
   -2.2435    0.1582   -2.1290 H   0  0  0  0  0  0  0  0  0  0  0  0
   -6.7264    1.4270   -3.8460 H   0  0  0  0  0  0  0  0  0  0  0  0
   -6.2858    0.0451   -1.6621 H   0  0  0  0  0  0  0  0  0  0  0  0
   -1.3416    1.0132    2.7587 H   0  0  0  0  0  0  0  0  0  0  0  0
    0.6079   -1.3861    1.3274 H   0  0  0  0  0  0  0  0  0  0  0  0
   -0.1765   -3.4641    0.3233 H   0  0  0  0  0  0  0  0  0  0  0  0
   -4.1313   -1.8342   -0.0332 H   0  0  0  0  0  0  0  0  0  0  0  0
   -3.3616    0.2811    0.9546 H   0  0  0  0  0  0  0  0  0  0  0  0
    4.2083   -0.7922    2.6107 H   0  0  0  0  0  0  0  0  0  0  0  0
    3.9581   -4.2427    0.0567 H   0  0  0  0  0  0  0  0  0  0  0  0
    2.1530   -0.5329   -1.1537 H   0  0  0  0  0  0  0  0  0  0  0  0
  1  2  1  0
  2  3  1  0
  3  4  1  0
  4  5  1  0
  5  6  1  0
  6  7  1  0
  7  8  1  0
  8  9  1  0
  9 10  1  0
 10 11  2  0
 11 12  1  0
 12 13  2  0
 12 14  1  0
 14 15  1  0
 14 16  1  0
 16 17  1  0
 16 18  1  0
 16 19  2  0
  8 20  1  0
 20 21  1  0
 21 22  2  0
 22 23  1  0
 23 24  2  0
 24 25  1  0
 24 26  1  0
 26 27  2  0
  2 28  1  0
 28 29  2  0
 29 30  1  0
 30 31  2  0
 31 32  1  0
 32 33  2  0
 32 34  1  0
 34 35  1  0
 34 36  1  0
 34 37  1  0
 30 38  1  0
 38 39  1  0
 38 40  1  0
 38 41  1  0
 20  4  1  0
 27 21  1  0
 33 28  1  0
 15 10  1  0
  1 42  1  0
  1 43  1  0
  1 44  1  0
  2 45  1  1
  4 46  1  1
  6 47  1  0
  6 48  1  0
  7 49  1  0
  7 50  1  0
  9 51  1  0
  9 52  1  0
 15 53  1  0
 17 54  1  0
 18 55  1  0
 20 56  1  1
 22 57  1  0
 23 58  1  0
 26 59  1  0
 27 60  1  0
 29 61  1  0
 31 62  1  0
 33 63  1  0
M  END
$$$$
