
     RDKit          3D

 39 40  0  0  0  0  0  0  0  0999 V2000
    5.8005    1.0413    1.1572 N   0  0  0  0  0  0  0  0  0  0  0  0
    5.3174    0.4350   -0.0414 C   0  0  0  0  0  0  0  0  0  0  0  0
    5.9298    0.6210   -1.1266 O   0  0  0  0  0  0  0  0  0  0  0  0
    4.0615   -0.3827   -0.0245 C   0  0  0  0  0  0  0  0  0  0  0  0
    2.8317    0.5213   -0.1482 C   0  0  0  0  0  0  0  0  0  0  0  0
    1.5428   -0.2985   -0.1310 C   0  0  0  0  0  0  0  0  0  0  0  0
    0.3942    0.5970   -0.2489 N   0  0  0  0  0  0  0  0  0  0  0  0
   -0.8552    0.2252   -0.2224 C   0  0  0  0  0  0  0  0  0  0  0  0
   -1.9263    1.2561   -0.3326 C   0  0  0  0  0  0  0  0  0  0  0  0
   -3.2821    0.8866   -0.4527 C   0  0  0  0  0  0  0  0  0  0  0  0
   -4.2794    1.8611   -0.5531 C   0  0  0  0  0  0  0  0  0  0  0  0
   -3.9416    3.2163   -0.5367 C   0  0  0  0  0  0  0  0  0  0  0  0
   -5.1959    4.4361   -0.6628 Cl  0  0  0  0  0  0  0  0  0  0  0  0
   -2.6032    3.5983   -0.4205 C   0  0  0  0  0  0  0  0  0  0  0  0
   -1.6016    2.6282   -0.3197 C   0  0  0  0  0  0  0  0  0  0  0  0
   -1.2100   -1.2054   -0.0676 C   0  0  0  0  0  0  0  0  0  0  0  0
   -1.6174   -1.7288    1.1792 C   0  0  0  0  0  0  0  0  0  0  0  0
   -1.6874   -0.9322    2.3234 O   0  0  0  0  0  0  0  0  0  0  0  0
   -1.9585   -3.0826    1.2823 C   0  0  0  0  0  0  0  0  0  0  0  0
   -1.8958   -3.9153    0.1620 C   0  0  0  0  0  0  0  0  0  0  0  0
   -1.4923   -3.3996   -1.0717 C   0  0  0  0  0  0  0  0  0  0  0  0
   -1.4334   -4.2089   -2.1579 F   0  0  0  0  0  0  0  0  0  0  0  0
   -1.1517   -2.0493   -1.1876 C   0  0  0  0  0  0  0  0  0  0  0  0
    5.2909    0.9158    2.0599 H   0  0  0  0  0  0  0  0  0  0  0  0
    6.6680    1.6221    1.1415 H   0  0  0  0  0  0  0  0  0  0  0  0
    4.0132   -0.9595    0.9246 H   0  0  0  0  0  0  0  0  0  0  0  0
    4.0819   -1.1085   -0.8670 H   0  0  0  0  0  0  0  0  0  0  0  0
    2.8865    1.0943   -1.1004 H   0  0  0  0  0  0  0  0  0  0  0  0
    2.8146    1.2436    0.6980 H   0  0  0  0  0  0  0  0  0  0  0  0
    1.5464   -1.0131   -0.9827 H   0  0  0  0  0  0  0  0  0  0  0  0
    1.4755   -0.8652    0.8239 H   0  0  0  0  0  0  0  0  0  0  0  0
   -3.5785   -0.1539   -0.4745 H   0  0  0  0  0  0  0  0  0  0  0  0
   -5.3153    1.5604   -0.6449 H   0  0  0  0  0  0  0  0  0  0  0  0
   -2.3366    4.6475   -0.4072 H   0  0  0  0  0  0  0  0  0  0  0  0
   -0.5738    2.9557   -0.2271 H   0  0  0  0  0  0  0  0  0  0  0  0
   -1.4421    0.0501    2.3213 H   0  0  0  0  0  0  0  0  0  0  0  0
   -2.2715   -3.4905    2.2351 H   0  0  0  0  0  0  0  0  0  0  0  0
   -2.1606   -4.9610    0.2515 H   0  0  0  0  0  0  0  0  0  0  0  0
   -0.8448   -1.6581   -2.1500 H   0  0  0  0  0  0  0  0  0  0  0  0
  1  2  1  0
  2  3  2  0
  2  4  1  0
  4  5  1  0
  5  6  1  0
  6  7  1  0
  7  8  2  0
  8  9  1  0
  9 10  2  0
 10 11  1  0
 11 12  2  0
 12 13  1  0
 12 14  1  0
 14 15  2  0
  8 16  1  0
 16 17  2  0
 17 18  1  0
 17 19  1  0
 19 20  2  0
 20 21  1  0
 21 22  1  0
 21 23  2  0
 15  9  1  0
 23 16  1  0
  1 24  1  0
  1 25  1  0
  4 26  1  0
  4 27  1  0
  5 28  1  0
  5 29  1  0
  6 30  1  0
  6 31  1  0
 10 32  1  0
 11 33  1  0
 14 34  1  0
 15 35  1  0
 18 36  1  0
 19 37  1  0
 20 38  1  0
 23 39  1  0
M  END
$$$$
