
     RDKit          3D

 41 42  0  0  0  0  0  0  0  0999 V2000
    5.6917    1.6673    0.6684 O   0  0  0  0  0  0  0  0  0  0  0  0
    6.6599    1.1494   -0.1863 C   0  0  0  0  0  0  0  0  0  0  0  0
    7.1570    1.8750   -1.0887 O   0  0  0  0  0  0  0  0  0  0  0  0
    7.0757   -0.2832   -0.0616 C   0  0  0  0  0  0  0  0  0  0  0  0
    6.2786   -1.1822   -1.0104 C   0  0  0  0  0  0  0  0  0  0  0  0
    4.8667   -1.2194   -0.6279 N   0  0  0  0  0  0  0  0  0  0  0  0
    3.8641   -0.4222   -1.2813 C   0  0  0  0  0  0  0  0  0  0  0  0
    4.2033    0.3916   -2.1840 O   0  0  0  0  0  0  0  0  0  0  0  0
    2.4358   -0.5225   -0.8962 C   0  0  0  0  0  0  0  0  0  0  0  0
    1.5664    0.5571   -1.1338 C   0  0  0  0  0  0  0  0  0  0  0  0
    0.2170    0.4750   -0.7782 C   0  0  0  0  0  0  0  0  0  0  0  0
   -0.2889   -0.6940   -0.1847 C   0  0  0  0  0  0  0  0  0  0  0  0
    0.5701   -1.7742    0.0419 C   0  0  0  0  0  0  0  0  0  0  0  0
    1.9202   -1.6936   -0.3119 C   0  0  0  0  0  0  0  0  0  0  0  0
   -1.6663   -0.8121    0.1911 N   0  0  0  0  0  0  0  0  0  0  0  0
   -2.5009    0.1319    0.0117 N   0  0  0  0  0  0  0  0  0  0  0  0
   -3.8786    0.0147    0.3873 C   0  0  0  0  0  0  0  0  0  0  0  0
   -4.3835   -1.1545    0.9765 C   0  0  0  0  0  0  0  0  0  0  0  0
   -5.7303   -1.2357    1.3303 C   0  0  0  0  0  0  0  0  0  0  0  0
   -6.5936   -0.1547    1.1028 C   0  0  0  0  0  0  0  0  0  0  0  0
   -7.9359   -0.2642    1.4669 O   0  0  0  0  0  0  0  0  0  0  0  0
   -6.0984    1.0301    0.5097 C   0  0  0  0  0  0  0  0  0  0  0  0
   -4.7365    1.0962    0.1584 C   0  0  0  0  0  0  0  0  0  0  0  0
   -6.9724    2.2026    0.2482 C   0  0  0  0  0  0  0  0  0  0  0  0
   -6.4444    3.3505   -0.3380 O   0  0  0  0  0  0  0  0  0  0  0  0
   -8.1960    2.1788    0.5496 O   0  0  0  0  0  0  0  0  0  0  0  0
    5.3839    2.6285    0.5829 H   0  0  0  0  0  0  0  0  0  0  0  0
    6.9318   -0.6229    0.9868 H   0  0  0  0  0  0  0  0  0  0  0  0
    8.1577   -0.3713   -0.3001 H   0  0  0  0  0  0  0  0  0  0  0  0
    6.4003   -0.8408   -2.0616 H   0  0  0  0  0  0  0  0  0  0  0  0
    6.6888   -2.2131   -0.9522 H   0  0  0  0  0  0  0  0  0  0  0  0
    4.6237   -1.7337    0.2479 H   0  0  0  0  0  0  0  0  0  0  0  0
    1.9329    1.4710   -1.5848 H   0  0  0  0  0  0  0  0  0  0  0  0
   -0.4280    1.3236   -0.9667 H   0  0  0  0  0  0  0  0  0  0  0  0
    0.1894   -2.6842    0.4891 H   0  0  0  0  0  0  0  0  0  0  0  0
    2.5484   -2.5589   -0.1480 H   0  0  0  0  0  0  0  0  0  0  0  0
   -3.7392   -2.0041    1.1634 H   0  0  0  0  0  0  0  0  0  0  0  0
   -6.1052   -2.1445    1.7841 H   0  0  0  0  0  0  0  0  0  0  0  0
   -8.3057   -1.1061    1.8927 H   0  0  0  0  0  0  0  0  0  0  0  0
   -4.3309    1.9914   -0.2973 H   0  0  0  0  0  0  0  0  0  0  0  0
   -7.0288    4.1573   -0.5221 H   0  0  0  0  0  0  0  0  0  0  0  0
  1  2  1  0
  2  3  2  0
  2  4  1  0
  4  5  1  0
  5  6  1  0
  6  7  1  0
  7  8  2  0
  7  9  1  0
  9 10  2  0
 10 11  1  0
 11 12  2  0
 12 13  1  0
 13 14  2  0
 12 15  1  0
 15 16  2  0
 16 17  1  0
 17 18  2  0
 18 19  1  0
 19 20  2  0
 20 21  1  0
 20 22  1  0
 22 23  2  0
 22 24  1  0
 24 25  1  0
 24 26  2  0
 14  9  1  0
 23 17  1  0
  1 27  1  0
  4 28  1  0
  4 29  1  0
  5 30  1  0
  5 31  1  0
  6 32  1  0
 10 33  1  0
 11 34  1  0
 13 35  1  0
 14 36  1  0
 18 37  1  0
 19 38  1  0
 21 39  1  0
 23 40  1  0
 25 41  1  0
M  END
$$$$
