
     RDKit          3D

 56 59  0  0  0  0  0  0  0  0999 V2000
   -0.6939   -0.4887   -0.6459 C   0  0  2  0  0  0  0  0  0  0  0  0
   -1.6095   -0.4752   -1.8595 C   0  0  0  0  0  0  0  0  0  0  0  0
   -3.0206   -0.7072   -1.2677 C   0  0  2  0  0  0  0  0  0  0  0  0
   -4.0794    0.1197   -2.0240 C   0  0  0  0  0  0  0  0  0  0  0  0
   -2.8990   -0.4826    0.2918 C   0  0  2  0  0  0  0  0  0  0  0  0
   -2.8123   -1.7697    0.8740 O   0  0  0  0  0  0  0  0  0  0  0  0
   -4.1130    0.2250    0.9243 C   0  0  0  0  0  0  0  0  0  0  0  0
   -3.9746    1.2398    1.5883 O   0  0  0  0  0  0  0  0  0  0  0  0
   -5.4735   -0.4184    0.8998 C   0  0  0  0  0  0  0  0  0  0  0  0
   -6.6957    0.7230    0.2813 Cl  0  0  0  0  0  0  0  0  0  0  0  0
   -1.5018    0.2466    0.4378 C   0  0  2  0  0  0  0  0  0  0  0  0
   -1.6325    1.7845    0.1459 C   0  0  0  0  0  0  0  0  0  0  0  0
   -0.7658    0.0345    1.7913 C   0  0  0  0  0  0  0  0  0  0  0  0
    0.7184    0.4998    1.7470 C   0  0  2  0  0  0  0  0  0  0  0  0
    0.7857    1.8994    1.6895 O   0  0  0  0  0  0  0  0  0  0  0  0
    1.5192   -0.1653    0.5684 C   0  0  1  0  0  0  0  0  0  0  0  0
    1.5357   -1.5282    0.8529 F   0  0  0  0  0  0  0  0  0  0  0  0
    0.7668    0.0085   -0.8046 C   0  0  1  0  0  0  0  0  0  0  0  0
    1.4834   -0.7787   -1.9248 C   0  0  0  0  0  0  0  0  0  0  0  0
    2.9414   -0.3472   -2.0696 C   0  0  0  0  0  0  0  0  0  0  0  0
    3.6459   -0.4656   -0.7418 C   0  0  0  0  0  0  0  0  0  0  0  0
    4.7757   -1.1866   -0.6572 C   0  0  0  0  0  0  0  0  0  0  0  0
    5.4549   -1.3709    0.6241 C   0  0  0  0  0  0  0  0  0  0  0  0
    6.5243   -2.0327    0.6855 O   0  0  0  0  0  0  0  0  0  0  0  0
    4.8758   -0.7968    1.8352 C   0  0  0  0  0  0  0  0  0  0  0  0
    3.7593   -0.0704    1.7745 C   0  0  0  0  0  0  0  0  0  0  0  0
    3.0403    0.2706    0.4665 C   0  0  2  0  0  0  0  0  0  0  0  0
    3.2509    1.7882    0.2362 C   0  0  0  0  0  0  0  0  0  0  0  0
   -0.6122   -1.5642   -0.3543 H   0  0  0  0  0  0  0  0  0  0  0  0
   -1.5319    0.5057   -2.3792 H   0  0  0  0  0  0  0  0  0  0  0  0
   -1.3433   -1.2838   -2.5750 H   0  0  0  0  0  0  0  0  0  0  0  0
   -3.2825   -1.7745   -1.4533 H   0  0  0  0  0  0  0  0  0  0  0  0
   -4.0874    1.1831   -1.7196 H   0  0  0  0  0  0  0  0  0  0  0  0
   -5.0881   -0.3071   -1.8591 H   0  0  0  0  0  0  0  0  0  0  0  0
   -3.8917    0.0696   -3.1179 H   0  0  0  0  0  0  0  0  0  0  0  0
   -2.9155   -1.6861    1.8588 H   0  0  0  0  0  0  0  0  0  0  0  0
   -5.4733   -1.3344    0.2731 H   0  0  0  0  0  0  0  0  0  0  0  0
   -5.7551   -0.7098    1.9333 H   0  0  0  0  0  0  0  0  0  0  0  0
   -2.3893    2.0057   -0.6252 H   0  0  0  0  0  0  0  0  0  0  0  0
   -0.7024    2.2564   -0.2083 H   0  0  0  0  0  0  0  0  0  0  0  0
   -1.9109    2.3436    1.0624 H   0  0  0  0  0  0  0  0  0  0  0  0
   -1.3059    0.5652    2.6051 H   0  0  0  0  0  0  0  0  0  0  0  0
   -0.7568   -1.0414    2.0660 H   0  0  0  0  0  0  0  0  0  0  0  0
    1.1734    0.1608    2.7050 H   0  0  0  0  0  0  0  0  0  0  0  0
    0.5314    2.2406    2.5867 H   0  0  0  0  0  0  0  0  0  0  0  0
    0.7699    1.0663   -1.1206 H   0  0  0  0  0  0  0  0  0  0  0  0
    0.9746   -0.5989   -2.8962 H   0  0  0  0  0  0  0  0  0  0  0  0
    1.4429   -1.8712   -1.7177 H   0  0  0  0  0  0  0  0  0  0  0  0
    2.9896    0.7045   -2.4234 H   0  0  0  0  0  0  0  0  0  0  0  0
    3.4211   -0.9785   -2.8499 H   0  0  0  0  0  0  0  0  0  0  0  0
    5.1896   -1.6695   -1.5346 H   0  0  0  0  0  0  0  0  0  0  0  0
    5.3607   -0.9585    2.7901 H   0  0  0  0  0  0  0  0  0  0  0  0
    3.4044    0.3685    2.6978 H   0  0  0  0  0  0  0  0  0  0  0  0
    4.3044    1.9844   -0.0611 H   0  0  0  0  0  0  0  0  0  0  0  0
    2.5992    2.1911   -0.5629 H   0  0  0  0  0  0  0  0  0  0  0  0
    3.0787    2.3769    1.1607 H   0  0  0  0  0  0  0  0  0  0  0  0
  1  2  1  0
  2  3  1  0
  3  4  1  0
  3  5  1  0
  5  6  1  1
  5  7  1  0
  7  8  2  0
  7  9  1  0
  9 10  1  0
  5 11  1  0
 11 12  1  6
 11 13  1  0
 13 14  1  0
 14 15  1  0
 14 16  1  0
 16 17  1  1
 16 18  1  0
 18 19  1  0
 19 20  1  0
 20 21  1  0
 21 22  2  0
 22 23  1  0
 23 24  2  0
 23 25  1  0
 25 26  2  0
 26 27  1  0
 27 28  1  6
 11  1  1  0
 27 16  1  0
 18  1  1  0
 27 21  1  0
  1 29  1  1
  2 30  1  0
  2 31  1  0
  3 32  1  1
  4 33  1  0
  4 34  1  0
  4 35  1  0
  6 36  1  0
  9 37  1  0
  9 38  1  0
 12 39  1  0
 12 40  1  0
 12 41  1  0
 13 42  1  0
 13 43  1  0
 14 44  1  1
 15 45  1  0
 18 46  1  6
 19 47  1  0
 19 48  1  0
 20 49  1  0
 20 50  1  0
 22 51  1  0
 25 52  1  0
 26 53  1  0
 28 54  1  0
 28 55  1  0
 28 56  1  0
M  END
$$$$
