
     RDKit          3D

 97100  0  0  0  0  0  0  0  0999 V2000
    2.4484    3.0395    0.7393 C   0  0  0  0  0  0  0  0  0  0  0  0
    3.4048    2.8042   -0.3845 C   0  0  0  0  0  0  0  0  0  0  0  0
    3.1535    3.2779   -1.5255 O   0  0  0  0  0  0  0  0  0  0  0  0
    4.5825    2.0153   -0.1660 N   0  0  0  0  0  0  0  0  0  0  0  0
    5.5120    1.6543   -1.2445 C   0  0  1  0  0  0  0  0  0  0  0  0
    6.9727    1.6586   -0.7145 C   0  0  2  0  0  0  0  0  0  0  0  0
    7.8461    2.1786   -1.6854 O   0  0  0  0  0  0  0  0  0  0  0  0
    7.3919    0.3683   -0.2919 O   0  0  0  0  0  0  0  0  0  0  0  0
    7.4275   -0.6027   -1.3382 C   0  0  2  0  0  0  0  0  0  0  0  0
    8.8550   -0.7360   -1.8974 C   0  0  0  0  0  0  0  0  0  0  0  0
    8.9855   -1.9160   -2.6448 O   0  0  0  0  0  0  0  0  0  0  0  0
    6.3670   -0.3748   -2.4588 C   0  0  1  0  0  0  0  0  0  0  0  0
    6.0419   -1.5721   -3.1235 O   0  0  0  0  0  0  0  0  0  0  0  0
    5.1143    0.2922   -1.8685 C   0  0  0  0  0  0  0  0  0  0  0  0
    4.5596   -0.5503   -0.8648 O   0  0  0  0  0  0  0  0  0  0  0  0
    3.2992   -1.0738   -1.2435 C   0  0  2  0  0  0  0  0  0  0  0  0
    2.3595   -0.0053   -1.3353 O   0  0  0  0  0  0  0  0  0  0  0  0
    1.0327   -0.4887   -1.2946 C   0  0  1  0  0  0  0  0  0  0  0  0
    0.6866   -0.9138    0.1501 C   0  0  1  0  0  0  0  0  0  0  0  0
   -0.3978   -1.8289    0.1024 O   0  0  0  0  0  0  0  0  0  0  0  0
   -1.2140   -1.7509    1.2608 C   0  0  2  0  0  0  0  0  0  0  0  0
   -1.8139   -3.0198    1.4455 O   0  0  0  0  0  0  0  0  0  0  0  0
   -2.4458   -3.1010    2.7160 C   0  0  2  0  0  0  0  0  0  0  0  0
   -3.1406   -4.4680    2.8100 C   0  0  0  0  0  0  0  0  0  0  0  0
   -3.6618   -4.6785    4.0954 O   0  0  0  0  0  0  0  0  0  0  0  0
   -3.4571   -1.9331    2.9524 C   0  0  1  0  0  0  0  0  0  0  0  0
   -2.9645   -1.0954    3.9690 O   0  0  0  0  0  0  0  0  0  0  0  0
   -3.6717   -1.1325    1.6528 C   0  0  0  0  0  0  0  0  0  0  0  0
   -4.5050   -0.0113    1.9158 O   0  0  0  0  0  0  0  0  0  0  0  0
   -5.5359    0.1146    0.9541 C   0  0  2  0  0  0  0  0  0  0  0  0
   -4.9760    0.3031   -0.3344 O   0  0  0  0  0  0  0  0  0  0  0  0
   -5.9700    0.1567   -1.3369 C   0  0  1  0  0  0  0  0  0  0  0  0
   -7.2373    1.0242   -1.0583 C   0  0  1  0  0  0  0  0  0  0  0  0
   -8.2988    0.1816   -0.6846 O   0  0  0  0  0  0  0  0  0  0  0  0
   -6.9618    2.0445    0.0689 C   0  0  2  0  0  0  0  0  0  0  0  0
   -6.0277    2.9982   -0.3725 O   0  0  0  0  0  0  0  0  0  0  0  0
   -6.4095    1.3379    1.3280 C   0  0  1  0  0  0  0  0  0  0  0  0
   -7.4788    0.9294    2.1425 O   0  0  0  0  0  0  0  0  0  0  0  0
   -5.3596    0.5302   -2.6560 C   0  0  0  0  0  0  0  0  0  0  0  0
   -4.4963    1.6187   -2.7411 O   0  0  0  0  0  0  0  0  0  0  0  0
   -5.6594   -0.1157   -3.6959 O   0  0  0  0  0  0  0  0  0  0  0  0
   -2.3174   -0.6738    1.0544 C   0  0  1  0  0  0  0  0  0  0  0  0
   -1.8924    0.6029    1.6454 N   0  0  0  0  0  0  0  0  0  0  0  0
   -1.9966    1.8589    0.9597 C   0  0  0  0  0  0  0  0  0  0  0  0
   -1.4615    3.1000    1.5943 C   0  0  0  0  0  0  0  0  0  0  0  0
   -2.5712    1.9347   -0.1593 O   0  0  0  0  0  0  0  0  0  0  0  0
    1.9173   -1.5717    0.8404 C   0  0  2  0  0  0  0  0  0  0  0  0
    2.5966   -0.6208    1.6218 O   0  0  0  0  0  0  0  0  0  0  0  0
    2.8980   -2.1542   -0.1910 C   0  0  1  0  0  0  0  0  0  0  0  0
    2.2983   -3.2567   -0.8241 O   0  0  0  0  0  0  0  0  0  0  0  0
    0.0962    0.5828   -1.7700 C   0  0  0  0  0  0  0  0  0  0  0  0
    0.3583    1.9185   -1.4827 O   0  0  0  0  0  0  0  0  0  0  0  0
   -0.9525    0.2707   -2.3956 O   0  0  0  0  0  0  0  0  0  0  0  0
    1.9274    2.0918    0.9861 H   0  0  0  0  0  0  0  0  0  0  0  0
    1.6933    3.8036    0.4569 H   0  0  0  0  0  0  0  0  0  0  0  0
    3.0012    3.3953    1.6335 H   0  0  0  0  0  0  0  0  0  0  0  0
    4.7139    1.5766    0.7743 H   0  0  0  0  0  0  0  0  0  0  0  0
    5.4536    2.4293   -2.0422 H   0  0  0  0  0  0  0  0  0  0  0  0
    7.0163    2.3325    0.1721 H   0  0  0  0  0  0  0  0  0  0  0  0
    8.7207    2.3123   -1.2348 H   0  0  0  0  0  0  0  0  0  0  0  0
    7.1931   -1.5718   -0.8455 H   0  0  0  0  0  0  0  0  0  0  0  0
    9.1346    0.1498   -2.5107 H   0  0  0  0  0  0  0  0  0  0  0  0
    9.5690   -0.7862   -1.0480 H   0  0  0  0  0  0  0  0  0  0  0  0
    8.7257   -1.6965   -3.5773 H   0  0  0  0  0  0  0  0  0  0  0  0
    6.7862    0.3167   -3.2232 H   0  0  0  0  0  0  0  0  0  0  0  0
    5.7302   -2.2275   -2.4472 H   0  0  0  0  0  0  0  0  0  0  0  0
    4.4091    0.5032   -2.7098 H   0  0  0  0  0  0  0  0  0  0  0  0
    3.3859   -1.5665   -2.2408 H   0  0  0  0  0  0  0  0  0  0  0  0
    0.9159   -1.3552   -1.9895 H   0  0  0  0  0  0  0  0  0  0  0  0
    0.4255    0.0126    0.7137 H   0  0  0  0  0  0  0  0  0  0  0  0
   -0.5971   -1.5119    2.1649 H   0  0  0  0  0  0  0  0  0  0  0  0
   -1.6612   -3.0888    3.5085 H   0  0  0  0  0  0  0  0  0  0  0  0
   -2.4189   -5.2777    2.5552 H   0  0  0  0  0  0  0  0  0  0  0  0
   -3.9703   -4.5165    2.0724 H   0  0  0  0  0  0  0  0  0  0  0  0
   -2.8912   -4.8944    4.6831 H   0  0  0  0  0  0  0  0  0  0  0  0
   -4.4487   -2.3388    3.2666 H   0  0  0  0  0  0  0  0  0  0  0  0
   -3.7391   -0.5980    4.3410 H   0  0  0  0  0  0  0  0  0  0  0  0
   -4.1317   -1.8511    0.9282 H   0  0  0  0  0  0  0  0  0  0  0  0
   -6.1720   -0.8058    0.9821 H   0  0  0  0  0  0  0  0  0  0  0  0
   -6.2556   -0.9194   -1.4014 H   0  0  0  0  0  0  0  0  0  0  0  0
   -7.5359    1.5815   -1.9791 H   0  0  0  0  0  0  0  0  0  0  0  0
   -9.1332    0.7147   -0.7609 H   0  0  0  0  0  0  0  0  0  0  0  0
   -7.9101    2.5683    0.3365 H   0  0  0  0  0  0  0  0  0  0  0  0
   -6.5059    3.6026   -0.9986 H   0  0  0  0  0  0  0  0  0  0  0  0
   -5.7931    2.0809    1.8889 H   0  0  0  0  0  0  0  0  0  0  0  0
   -7.0929    0.7059    3.0299 H   0  0  0  0  0  0  0  0  0  0  0  0
   -4.0871    1.8898   -3.6270 H   0  0  0  0  0  0  0  0  0  0  0  0
   -2.4712   -0.5460   -0.0400 H   0  0  0  0  0  0  0  0  0  0  0  0
   -1.5374    0.6104    2.6282 H   0  0  0  0  0  0  0  0  0  0  0  0
   -0.5028    2.8782    2.1084 H   0  0  0  0  0  0  0  0  0  0  0  0
   -2.1949    3.4815    2.3344 H   0  0  0  0  0  0  0  0  0  0  0  0
   -1.2783    3.8794    0.8245 H   0  0  0  0  0  0  0  0  0  0  0  0
    1.5837   -2.4066    1.5010 H   0  0  0  0  0  0  0  0  0  0  0  0
    2.0539   -0.4817    2.4417 H   0  0  0  0  0  0  0  0  0  0  0  0
    3.8044   -2.5080    0.3565 H   0  0  0  0  0  0  0  0  0  0  0  0
    3.0285   -3.7693   -1.2600 H   0  0  0  0  0  0  0  0  0  0  0  0
   -0.2734    2.6501   -1.7853 H   0  0  0  0  0  0  0  0  0  0  0  0
  1  2  1  0
  2  3  2  0
  2  4  1  0
  4  5  1  0
  5  6  1  0
  6  7  1  0
  6  8  1  0
  8  9  1  0
  9 10  1  0
 10 11  1  0
  9 12  1  0
 12 13  1  0
 12 14  1  0
 14 15  1  0
 15 16  1  0
 16 17  1  0
 17 18  1  0
 18 19  1  0
 19 20  1  0
 20 21  1  0
 21 22  1  0
 22 23  1  0
 23 24  1  0
 24 25  1  0
 23 26  1  0
 26 27  1  0
 26 28  1  0
 28 29  1  0
 29 30  1  0
 30 31  1  0
 31 32  1  0
 32 33  1  0
 33 34  1  0
 33 35  1  0
 35 36  1  0
 35 37  1  0
 37 38  1  0
 32 39  1  0
 39 40  1  0
 39 41  2  0
 28 42  1  0
 42 43  1  0
 43 44  1  0
 44 45  1  0
 44 46  2  0
 19 47  1  0
 47 48  1  0
 47 49  1  0
 49 50  1  0
 18 51  1  0
 51 52  1  0
 51 53  2  0
 14  5  1  0
 49 16  1  0
 42 21  1  0
 37 30  1  0
  1 54  1  0
  1 55  1  0
  1 56  1  0
  4 57  1  0
  5 58  1  6
  6 59  1  1
  7 60  1  0
  9 61  1  1
 10 62  1  0
 10 63  1  0
 11 64  1  0
 12 65  1  6
 13 66  1  0
 14 67  1  0
 16 68  1  6
 18 69  1  6
 19 70  1  1
 21 71  1  1
 23 72  1  1
 24 73  1  0
 24 74  1  0
 25 75  1  0
 26 76  1  1
 27 77  1  0
 28 78  1  0
 30 79  1  6
 32 80  1  6
 33 81  1  6
 34 82  1  0
 35 83  1  1
 36 84  1  0
 37 85  1  1
 38 86  1  0
 40 87  1  0
 42 88  1  6
 43 89  1  0
 45 90  1  0
 45 91  1  0
 45 92  1  0
 47 93  1  1
 48 94  1  0
 49 95  1  1
 50 96  1  0
 52 97  1  0
M  END
$$$$
