
     RDKit          3D

 52 54  0  0  0  0  0  0  0  0999 V2000
    2.8940    1.4995    2.6913 C   0  0  0  0  0  0  0  0  0  0  0  0
    1.4994    1.1249    2.1928 C   0  0  0  0  0  0  0  0  0  0  0  0
    1.5333    0.0582    1.0894 C   0  0  0  0  0  0  0  0  0  0  0  0
    2.1315    0.5833   -0.2237 C   0  0  0  0  0  0  0  0  0  0  0  0
    1.8909   -0.3723   -1.3066 N   0  0  0  0  0  0  0  0  0  0  0  0
    0.9058   -0.3775   -2.2511 C   0  0  0  0  0  0  0  0  0  0  0  0
   -0.1363    0.6955   -2.4054 C   0  0  0  0  0  0  0  0  0  0  0  0
   -1.0893    0.7018   -1.2378 C   0  0  0  0  0  0  0  0  0  0  0  0
   -1.8580   -0.4317   -0.9525 C   0  0  0  0  0  0  0  0  0  0  0  0
   -2.7170   -0.4530    0.1592 C   0  0  0  0  0  0  0  0  0  0  0  0
   -3.4832   -1.5856    0.4802 O   0  0  0  0  0  0  0  0  0  0  0  0
   -3.4685   -2.8066   -0.2526 C   0  0  0  0  0  0  0  0  0  0  0  0
   -2.8236    0.6767    0.9876 C   0  0  0  0  0  0  0  0  0  0  0  0
   -3.6974    0.5723    2.0872 O   0  0  0  0  0  0  0  0  0  0  0  0
   -3.9407    1.5669    3.0757 C   0  0  0  0  0  0  0  0  0  0  0  0
   -2.0690    1.8413    0.6897 C   0  0  0  0  0  0  0  0  0  0  0  0
   -2.1830    2.9793    1.5041 O   0  0  0  0  0  0  0  0  0  0  0  0
   -1.5069    4.2139    1.2860 C   0  0  0  0  0  0  0  0  0  0  0  0
   -1.2107    1.8366   -0.4267 C   0  0  0  0  0  0  0  0  0  0  0  0
    0.9288   -1.4817   -3.0496 N   0  0  0  0  0  0  0  0  0  0  0  0
    1.9735   -2.1775   -2.5652 C   0  0  0  0  0  0  0  0  0  0  0  0
    2.4756   -3.4103   -2.9659 C   0  0  0  0  0  0  0  0  0  0  0  0
    1.9025   -4.1393   -4.0514 N   0  0  0  0  0  0  0  0  0  0  0  0
    3.5441   -3.9127   -2.2776 N   0  0  0  0  0  0  0  0  0  0  0  0
    4.1023   -3.2298   -1.2266 C   0  0  0  0  0  0  0  0  0  0  0  0
    3.5978   -2.0194   -0.8394 N   0  0  0  0  0  0  0  0  0  0  0  0
    2.5419   -1.5216   -1.5281 C   0  0  0  0  0  0  0  0  0  0  0  0
    3.4444    0.5933    3.0223 H   0  0  0  0  0  0  0  0  0  0  0  0
    3.4705    2.0121    1.8935 H   0  0  0  0  0  0  0  0  0  0  0  0
    2.8034    2.1932    3.5536 H   0  0  0  0  0  0  0  0  0  0  0  0
    0.9151    0.7262    3.0502 H   0  0  0  0  0  0  0  0  0  0  0  0
    0.9783    2.0351    1.8270 H   0  0  0  0  0  0  0  0  0  0  0  0
    0.4916   -0.2799    0.9062 H   0  0  0  0  0  0  0  0  0  0  0  0
    2.1101   -0.8265    1.4365 H   0  0  0  0  0  0  0  0  0  0  0  0
    3.2265    0.7287   -0.1053 H   0  0  0  0  0  0  0  0  0  0  0  0
    1.6933    1.5694   -0.4828 H   0  0  0  0  0  0  0  0  0  0  0  0
    0.3720    1.6766   -2.5215 H   0  0  0  0  0  0  0  0  0  0  0  0
   -0.7151    0.5193   -3.3375 H   0  0  0  0  0  0  0  0  0  0  0  0
   -1.7675   -1.2988   -1.5929 H   0  0  0  0  0  0  0  0  0  0  0  0
   -3.8060   -2.6302   -1.2957 H   0  0  0  0  0  0  0  0  0  0  0  0
   -2.4469   -3.2422   -0.2485 H   0  0  0  0  0  0  0  0  0  0  0  0
   -4.1628   -3.5259    0.2280 H   0  0  0  0  0  0  0  0  0  0  0  0
   -4.6611    1.1655    3.8175 H   0  0  0  0  0  0  0  0  0  0  0  0
   -4.3904    2.4694    2.6112 H   0  0  0  0  0  0  0  0  0  0  0  0
   -2.9994    1.8187    3.6082 H   0  0  0  0  0  0  0  0  0  0  0  0
   -1.7935    4.6374    0.3003 H   0  0  0  0  0  0  0  0  0  0  0  0
   -0.4081    4.0641    1.3347 H   0  0  0  0  0  0  0  0  0  0  0  0
   -1.8008    4.9314    2.0790 H   0  0  0  0  0  0  0  0  0  0  0  0
   -0.6208    2.7111   -0.6639 H   0  0  0  0  0  0  0  0  0  0  0  0
    1.0846   -3.7622   -4.5801 H   0  0  0  0  0  0  0  0  0  0  0  0
    2.2989   -5.0643   -4.3292 H   0  0  0  0  0  0  0  0  0  0  0  0
    4.9459   -3.6530   -0.6990 H   0  0  0  0  0  0  0  0  0  0  0  0
  1  2  1  0
  2  3  1  0
  3  4  1  0
  4  5  1  0
  5  6  1  0
  6  7  1  0
  7  8  1  0
  8  9  2  0
  9 10  1  0
 10 11  1  0
 11 12  1  0
 10 13  2  0
 13 14  1  0
 14 15  1  0
 13 16  1  0
 16 17  1  0
 17 18  1  0
 16 19  2  0
  6 20  2  0
 20 21  1  0
 21 22  2  0
 22 23  1  0
 22 24  1  0
 24 25  2  0
 25 26  1  0
 26 27  2  0
 27  5  1  0
 19  8  1  0
 27 21  1  0
  1 28  1  0
  1 29  1  0
  1 30  1  0
  2 31  1  0
  2 32  1  0
  3 33  1  0
  3 34  1  0
  4 35  1  0
  4 36  1  0
  7 37  1  0
  7 38  1  0
  9 39  1  0
 12 40  1  0
 12 41  1  0
 12 42  1  0
 15 43  1  0
 15 44  1  0
 15 45  1  0
 18 46  1  0
 18 47  1  0
 18 48  1  0
 19 49  1  0
 23 50  1  0
 23 51  1  0
 25 52  1  0
M  END
$$$$
