
     RDKit          3D

 35 37  0  0  0  0  0  0  0  0999 V2000
    4.3366   -1.7875    0.7058 C   0  0  0  0  0  0  0  0  0  0  0  0
    3.3642   -1.9509   -0.3686 N   0  0  0  0  0  0  0  0  0  0  0  0
    2.3906   -0.9423   -0.6763 C   0  0  0  0  0  0  0  0  0  0  0  0
    2.3557    0.1569    0.0180 N   0  0  0  0  0  0  0  0  0  0  0  0
    1.4221    1.2367   -0.1518 C   0  0  0  0  0  0  0  0  0  0  0  0
    0.0596    1.0381   -0.5126 C   0  0  0  0  0  0  0  0  0  0  0  0
   -0.7686    2.1679   -0.6701 C   0  0  0  0  0  0  0  0  0  0  0  0
   -0.2760    3.4559   -0.4494 C   0  0  0  0  0  0  0  0  0  0  0  0
   -1.3301    4.8443   -0.6461 Cl  0  0  0  0  0  0  0  0  0  0  0  0
    1.0494    3.6373   -0.0581 C   0  0  0  0  0  0  0  0  0  0  0  0
    1.8889    2.5346    0.0952 C   0  0  0  0  0  0  0  0  0  0  0  0
   -0.5555   -0.3207   -0.6535 C   0  0  0  0  0  0  0  0  0  0  0  0
   -1.9222   -0.5289   -0.1066 C   0  0  0  0  0  0  0  0  0  0  0  0
   -2.9447   -1.0599   -0.9123 C   0  0  0  0  0  0  0  0  0  0  0  0
   -4.2329   -1.2297   -0.3955 C   0  0  0  0  0  0  0  0  0  0  0  0
   -4.5121   -0.8654    0.9244 C   0  0  0  0  0  0  0  0  0  0  0  0
   -3.5043   -0.3271    1.7290 C   0  0  0  0  0  0  0  0  0  0  0  0
   -2.2149   -0.1556    1.2164 C   0  0  0  0  0  0  0  0  0  0  0  0
    0.0767   -1.3144   -1.2318 N   0  0  0  0  0  4  0  0  0  0  0  0
   -0.4835   -2.5741   -1.2523 O   0  0  0  0  0  1  0  0  0  0  0  0
    1.4161   -1.1680   -1.7923 C   0  0  0  0  0  0  0  0  0  0  0  0
    4.9714   -0.8984    0.5072 H   0  0  0  0  0  0  0  0  0  0  0  0
    3.8095   -1.6596    1.6747 H   0  0  0  0  0  0  0  0  0  0  0  0
    4.9865   -2.6859    0.7669 H   0  0  0  0  0  0  0  0  0  0  0  0
    3.3815   -2.8364   -0.9231 H   0  0  0  0  0  0  0  0  0  0  0  0
   -1.8058    2.0491   -0.9597 H   0  0  0  0  0  0  0  0  0  0  0  0
    1.4322    4.6333    0.1250 H   0  0  0  0  0  0  0  0  0  0  0  0
    2.9183    2.6910    0.3934 H   0  0  0  0  0  0  0  0  0  0  0  0
   -2.7487   -1.3282   -1.9430 H   0  0  0  0  0  0  0  0  0  0  0  0
   -5.0163   -1.6389   -1.0202 H   0  0  0  0  0  0  0  0  0  0  0  0
   -5.5100   -0.9964    1.3223 H   0  0  0  0  0  0  0  0  0  0  0  0
   -3.7226   -0.0416    2.7499 H   0  0  0  0  0  0  0  0  0  0  0  0
   -1.4434    0.2629    1.8513 H   0  0  0  0  0  0  0  0  0  0  0  0
    1.6870   -2.0807   -2.3656 H   0  0  0  0  0  0  0  0  0  0  0  0
    1.4453   -0.3173   -2.5083 H   0  0  0  0  0  0  0  0  0  0  0  0
  1  2  1  0
  2  3  1  0
  3  4  2  0
  4  5  1  0
  5  6  2  0
  6  7  1  0
  7  8  2  0
  8  9  1  0
  8 10  1  0
 10 11  2  0
  6 12  1  0
 12 13  1  0
 13 14  2  0
 14 15  1  0
 15 16  2  0
 16 17  1  0
 17 18  2  0
 12 19  2  0
 19 20  1  0
 19 21  1  0
 21  3  1  0
 11  5  1  0
 18 13  1  0
  1 22  1  0
  1 23  1  0
  1 24  1  0
  2 25  1  0
  7 26  1  0
 10 27  1  0
 11 28  1  0
 14 29  1  0
 15 30  1  0
 16 31  1  0
 17 32  1  0
 18 33  1  0
 21 34  1  0
 21 35  1  0
M  CHG  2  19   1  20  -1
M  END
$$$$
