
     RDKit          3D

 65 65  0  0  0  0  0  0  0  0999 V2000
   -6.9923    3.0747    0.3197 C   0  0  0  0  0  0  0  0  0  0  0  0
   -6.5332    2.3157   -0.9258 C   0  0  0  0  0  0  0  0  0  0  0  0
   -5.0201    2.0311   -0.9156 C   0  0  0  0  0  0  0  0  0  0  0  0
   -4.6229    0.8473    0.0016 C   0  0  0  0  0  0  0  0  0  0  0  0
   -4.3641   -0.5139   -0.7173 C   0  0  0  0  0  0  0  0  0  0  0  0
   -5.5834   -0.9465   -1.5654 C   0  0  0  0  0  0  0  0  0  0  0  0
   -3.2131   -0.4238   -1.5282 O   0  0  0  0  0  0  0  0  0  0  0  0
   -4.1169   -1.6211    0.3436 C   0  0  0  0  0  0  0  0  0  0  0  0
   -2.9362   -1.3411    1.2396 C   0  0  0  0  0  0  0  0  0  0  0  0
   -1.6735   -1.5364    0.8303 C   0  0  0  0  0  0  0  0  0  0  0  0
   -0.5010   -1.2441    1.7453 C   0  0  1  0  0  0  0  0  0  0  0  0
   -0.3577   -2.3624    2.8068 C   0  0  2  0  0  0  0  0  0  0  0  0
    0.1505   -1.8276    4.0020 O   0  0  0  0  0  0  0  0  0  0  0  0
    0.6445   -3.3661    2.2348 C   0  0  0  0  0  0  0  0  0  0  0  0
    1.3659   -2.6025    1.1881 C   0  0  0  0  0  0  0  0  0  0  0  0
    2.2698   -3.0880    0.5259 O   0  0  0  0  0  0  0  0  0  0  0  0
    0.8327   -1.2277    0.9610 C   0  0  2  0  0  0  0  0  0  0  0  0
    1.7884   -0.1393    1.5084 C   0  0  0  0  0  0  0  0  0  0  0  0
    3.1541   -0.0635    0.8011 C   0  0  0  0  0  0  0  0  0  0  0  0
    3.0371    0.2843   -0.6933 C   0  0  0  0  0  0  0  0  0  0  0  0
    4.3894    0.6614   -1.3178 C   0  0  0  0  0  0  0  0  0  0  0  0
    5.3491   -0.5377   -1.4141 C   0  0  0  0  0  0  0  0  0  0  0  0
    6.6218   -0.1990   -2.2012 C   0  0  0  0  0  0  0  0  0  0  0  0
    7.4738    0.7945   -1.4734 C   0  0  0  0  0  0  0  0  0  0  0  0
    8.2295    0.4071   -0.5405 O   0  0  0  0  0  0  0  0  0  0  0  0
    7.3934    2.1486   -1.8108 O   0  0  0  0  0  0  0  0  0  0  0  0
    8.1421    3.1516   -1.1355 C   0  0  0  0  0  0  0  0  0  0  0  0
   -8.0803    3.2831    0.2445 H   0  0  0  0  0  0  0  0  0  0  0  0
   -6.8142    2.4781    1.2379 H   0  0  0  0  0  0  0  0  0  0  0  0
   -6.4541    4.0428    0.4026 H   0  0  0  0  0  0  0  0  0  0  0  0
   -7.1113    1.3727   -1.0156 H   0  0  0  0  0  0  0  0  0  0  0  0
   -6.7706    2.9383   -1.8155 H   0  0  0  0  0  0  0  0  0  0  0  0
   -4.4860    2.9472   -0.5792 H   0  0  0  0  0  0  0  0  0  0  0  0
   -4.6846    1.8596   -1.9576 H   0  0  0  0  0  0  0  0  0  0  0  0
   -3.6895    1.1410    0.5301 H   0  0  0  0  0  0  0  0  0  0  0  0
   -5.3892    0.7032    0.7933 H   0  0  0  0  0  0  0  0  0  0  0  0
   -6.4914   -1.0309   -0.9304 H   0  0  0  0  0  0  0  0  0  0  0  0
   -5.7880   -0.2236   -2.3819 H   0  0  0  0  0  0  0  0  0  0  0  0
   -5.3920   -1.9337   -2.0382 H   0  0  0  0  0  0  0  0  0  0  0  0
   -3.4379    0.0698   -2.3579 H   0  0  0  0  0  0  0  0  0  0  0  0
   -5.0190   -1.7246    0.9862 H   0  0  0  0  0  0  0  0  0  0  0  0
   -3.9634   -2.6040   -0.1552 H   0  0  0  0  0  0  0  0  0  0  0  0
   -3.1267   -0.9951    2.2522 H   0  0  0  0  0  0  0  0  0  0  0  0
   -1.4929   -1.9065   -0.1756 H   0  0  0  0  0  0  0  0  0  0  0  0
   -0.6866   -0.2586    2.2310 H   0  0  0  0  0  0  0  0  0  0  0  0
   -1.3250   -2.8785    3.0146 H   0  0  0  0  0  0  0  0  0  0  0  0
   -0.6039   -1.3594    4.4464 H   0  0  0  0  0  0  0  0  0  0  0  0
    1.3495   -3.7366    3.0104 H   0  0  0  0  0  0  0  0  0  0  0  0
    0.1144   -4.2233    1.7661 H   0  0  0  0  0  0  0  0  0  0  0  0
    0.6538   -1.0558   -0.1222 H   0  0  0  0  0  0  0  0  0  0  0  0
    1.9691   -0.3161    2.5915 H   0  0  0  0  0  0  0  0  0  0  0  0
    1.2935    0.8527    1.4192 H   0  0  0  0  0  0  0  0  0  0  0  0
    3.6995   -1.0201    0.9329 H   0  0  0  0  0  0  0  0  0  0  0  0
    3.7511    0.7248    1.3097 H   0  0  0  0  0  0  0  0  0  0  0  0
    2.6048   -0.5722   -1.2533 H   0  0  0  0  0  0  0  0  0  0  0  0
    2.3504    1.1508   -0.8120 H   0  0  0  0  0  0  0  0  0  0  0  0
    4.8563    1.4793   -0.7271 H   0  0  0  0  0  0  0  0  0  0  0  0
    4.1975    1.0526   -2.3409 H   0  0  0  0  0  0  0  0  0  0  0  0
    4.8342   -1.3760   -1.9320 H   0  0  0  0  0  0  0  0  0  0  0  0
    5.6317   -0.8869   -0.3977 H   0  0  0  0  0  0  0  0  0  0  0  0
    7.2085   -1.1302   -2.3568 H   0  0  0  0  0  0  0  0  0  0  0  0
    6.3556    0.1982   -3.2046 H   0  0  0  0  0  0  0  0  0  0  0  0
    7.9103    4.1409   -1.5805 H   0  0  0  0  0  0  0  0  0  0  0  0
    7.8696    3.1684   -0.0589 H   0  0  0  0  0  0  0  0  0  0  0  0
    9.2293    2.9531   -1.2450 H   0  0  0  0  0  0  0  0  0  0  0  0
  1  2  1  0
  2  3  1  0
  3  4  1  0
  4  5  1  0
  5  6  1  0
  5  7  1  0
  5  8  1  0
  8  9  1  0
  9 10  2  0
 10 11  1  0
 11 12  1  0
 12 13  1  0
 12 14  1  0
 14 15  1  0
 15 16  2  0
 15 17  1  0
 17 18  1  0
 18 19  1  0
 19 20  1  0
 20 21  1  0
 21 22  1  0
 22 23  1  0
 23 24  1  0
 24 25  2  0
 24 26  1  0
 26 27  1  0
 17 11  1  0
  1 28  1  0
  1 29  1  0
  1 30  1  0
  2 31  1  0
  2 32  1  0
  3 33  1  0
  3 34  1  0
  4 35  1  0
  4 36  1  0
  6 37  1  0
  6 38  1  0
  6 39  1  0
  7 40  1  0
  8 41  1  0
  8 42  1  0
  9 43  1  0
 10 44  1  0
 11 45  1  1
 12 46  1  1
 13 47  1  0
 14 48  1  0
 14 49  1  0
 17 50  1  6
 18 51  1  0
 18 52  1  0
 19 53  1  0
 19 54  1  0
 20 55  1  0
 20 56  1  0
 21 57  1  0
 21 58  1  0
 22 59  1  0
 22 60  1  0
 23 61  1  0
 23 62  1  0
 27 63  1  0
 27 64  1  0
 27 65  1  0
M  END
$$$$
