
     RDKit          3D

 45 46  0  0  0  0  0  0  0  0999 V2000
    6.7563   -0.9834    2.2694 C   0  0  0  0  0  0  0  0  0  0  0  0
    5.5228   -0.4027    1.5804 C   0  0  0  0  0  0  0  0  0  0  0  0
    5.4123    1.0979    1.8699 C   0  0  0  0  0  0  0  0  0  0  0  0
    5.6361   -0.6288    0.1733 O   0  0  0  0  0  0  0  0  0  0  0  0
    4.5920   -0.5347   -0.7623 C   0  0  0  0  0  0  0  0  0  0  0  0
    3.2507   -0.3076   -0.3930 C   0  0  0  0  0  0  0  0  0  0  0  0
    2.2426   -0.2375   -1.3674 C   0  0  0  0  0  0  0  0  0  0  0  0
    0.8885    0.0238   -0.9606 N   0  0  0  0  0  0  0  0  0  0  0  0
   -0.2649   -0.5773   -1.5798 C   0  0  0  0  0  0  0  0  0  0  0  0
   -0.1140   -1.4477   -2.4803 O   0  0  0  0  0  0  0  0  0  0  0  0
   -1.6400   -0.1991   -1.1736 C   0  0  0  0  0  0  0  0  0  0  0  0
   -1.9301    0.2076    0.1415 C   0  0  0  0  0  0  0  0  0  0  0  0
   -3.2353    0.5555    0.5064 C   0  0  0  0  0  0  0  0  0  0  0  0
   -3.5593    1.0732    2.1544 Cl  0  0  0  0  0  0  0  0  0  0  0  0
   -4.2710    0.4888   -0.4370 C   0  0  0  0  0  0  0  0  0  0  0  0
   -5.5729    0.8367   -0.0748 O   0  0  0  0  0  0  0  0  0  0  0  0
   -6.4733   -0.1256    0.4632 C   0  0  0  0  0  0  0  0  0  0  0  0
   -7.8014    0.5424    0.8044 C   0  0  0  0  0  0  0  0  0  0  0  0
   -7.6050    1.5864    1.8058 N   0  0  0  0  0  0  0  0  0  0  0  0
   -3.9914    0.0802   -1.7486 C   0  0  0  0  0  0  0  0  0  0  0  0
   -5.2687    0.0044   -2.9529 Cl  0  0  0  0  0  0  0  0  0  0  0  0
   -2.6859   -0.2681   -2.1104 C   0  0  0  0  0  0  0  0  0  0  0  0
    2.5887   -0.3592   -2.7240 C   0  0  0  0  0  0  0  0  0  0  0  0
    3.9155   -0.5885   -3.0933 C   0  0  0  0  0  0  0  0  0  0  0  0
    4.9095   -0.6819   -2.1172 C   0  0  0  0  0  0  0  0  0  0  0  0
    6.8247   -2.0720    2.0597 H   0  0  0  0  0  0  0  0  0  0  0  0
    6.6876   -0.8413    3.3692 H   0  0  0  0  0  0  0  0  0  0  0  0
    7.6794   -0.4908    1.8952 H   0  0  0  0  0  0  0  0  0  0  0  0
    4.6344   -0.9337    1.9853 H   0  0  0  0  0  0  0  0  0  0  0  0
    5.3356    1.2728    2.9643 H   0  0  0  0  0  0  0  0  0  0  0  0
    6.3036    1.6333    1.4785 H   0  0  0  0  0  0  0  0  0  0  0  0
    4.5083    1.5230    1.3881 H   0  0  0  0  0  0  0  0  0  0  0  0
    2.9722   -0.1964    0.6451 H   0  0  0  0  0  0  0  0  0  0  0  0
    0.7567    0.6492   -0.1358 H   0  0  0  0  0  0  0  0  0  0  0  0
   -1.1581    0.2317    0.8982 H   0  0  0  0  0  0  0  0  0  0  0  0
   -6.0380   -0.5839    1.3779 H   0  0  0  0  0  0  0  0  0  0  0  0
   -6.6502   -0.9286   -0.2847 H   0  0  0  0  0  0  0  0  0  0  0  0
   -8.2310    0.9905   -0.1182 H   0  0  0  0  0  0  0  0  0  0  0  0
   -8.5136   -0.2219    1.1878 H   0  0  0  0  0  0  0  0  0  0  0  0
   -7.3549    1.1277    2.7121 H   0  0  0  0  0  0  0  0  0  0  0  0
   -8.5254    2.0591    1.9564 H   0  0  0  0  0  0  0  0  0  0  0  0
   -2.4864   -0.5790   -3.1288 H   0  0  0  0  0  0  0  0  0  0  0  0
    1.8420   -0.2514   -3.4992 H   0  0  0  0  0  0  0  0  0  0  0  0
    4.1760   -0.6846   -4.1395 H   0  0  0  0  0  0  0  0  0  0  0  0
    5.9352   -0.8585   -2.4153 H   0  0  0  0  0  0  0  0  0  0  0  0
  1  2  1  0
  2  3  1  0
  2  4  1  0
  4  5  1  0
  5  6  2  0
  6  7  1  0
  7  8  1  0
  8  9  1  0
  9 10  2  0
  9 11  1  0
 11 12  2  0
 12 13  1  0
 13 14  1  0
 13 15  2  0
 15 16  1  0
 16 17  1  0
 17 18  1  0
 18 19  1  0
 15 20  1  0
 20 21  1  0
 20 22  2  0
  7 23  2  0
 23 24  1  0
 24 25  2  0
 25  5  1  0
 22 11  1  0
  1 26  1  0
  1 27  1  0
  1 28  1  0
  2 29  1  0
  3 30  1  0
  3 31  1  0
  3 32  1  0
  6 33  1  0
  8 34  1  0
 12 35  1  0
 17 36  1  0
 17 37  1  0
 18 38  1  0
 18 39  1  0
 19 40  1  0
 19 41  1  0
 22 42  1  0
 23 43  1  0
 24 44  1  0
 25 45  1  0
M  END
$$$$
