
     RDKit          3D

 52 53  0  0  0  0  0  0  0  0999 V2000
   -8.2964   -2.3567   -1.3386 C   0  0  0  0  0  0  0  0  0  0  0  0
   -7.5533   -1.1459   -1.4348 O   0  0  0  0  0  0  0  0  0  0  0  0
   -6.1594   -1.0550   -1.2937 C   0  0  0  0  0  0  0  0  0  0  0  0
   -5.5577    0.2079   -1.4123 C   0  0  0  0  0  0  0  0  0  0  0  0
   -6.3813    1.3172   -1.6621 O   0  0  0  0  0  0  0  0  0  0  0  0
   -5.9133    2.6545   -1.8039 C   0  0  0  0  0  0  0  0  0  0  0  0
   -4.1605    0.3294   -1.2773 C   0  0  0  0  0  0  0  0  0  0  0  0
   -3.3661   -0.8011   -1.0351 C   0  0  0  0  0  0  0  0  0  0  0  0
   -1.8777   -0.6599   -0.8561 C   0  0  0  0  0  0  0  0  0  0  0  0
   -1.5347   -0.4146    0.6231 C   0  0  0  0  0  0  0  0  0  0  0  0
   -0.1008   -0.1594    0.8334 N   0  0  0  0  0  0  0  0  0  0  0  0
    0.7219   -1.3579    0.6060 C   0  0  0  0  0  0  0  0  0  0  0  0
    2.0756   -1.2321    1.3276 C   0  0  0  0  0  0  0  0  0  0  0  0
    2.7658   -2.4522    1.2402 O   0  0  0  0  0  0  0  0  0  0  0  0
    2.9453   -0.1281    0.7162 C   0  0  0  0  0  0  0  0  0  0  0  0
    4.2065   -0.0914    1.3807 O   0  0  0  0  0  0  0  0  0  0  0  0
    5.2425    0.8010    1.0676 C   0  0  0  0  0  0  0  0  0  0  0  0
    5.1274    1.7629    0.0456 C   0  0  0  0  0  0  0  0  0  0  0  0
    6.1927    2.6234   -0.2325 C   0  0  0  0  0  0  0  0  0  0  0  0
    7.3759    2.5387    0.5050 C   0  0  0  0  0  0  0  0  0  0  0  0
    7.4971    1.5979    1.5382 C   0  0  0  0  0  0  0  0  0  0  0  0
    8.7808    1.4791    2.3050 C   0  0  0  0  0  0  0  0  0  0  0  0
    6.4319    0.7227    1.8031 C   0  0  0  0  0  0  0  0  0  0  0  0
   -3.9761   -2.0554   -0.9034 C   0  0  0  0  0  0  0  0  0  0  0  0
   -5.3594   -2.1846   -1.0365 C   0  0  0  0  0  0  0  0  0  0  0  0
   -9.3723   -2.1347   -1.4920 H   0  0  0  0  0  0  0  0  0  0  0  0
   -8.1663   -2.8056   -0.3313 H   0  0  0  0  0  0  0  0  0  0  0  0
   -7.9657   -3.0710   -2.1219 H   0  0  0  0  0  0  0  0  0  0  0  0
   -5.4099    2.9840   -0.8704 H   0  0  0  0  0  0  0  0  0  0  0  0
   -6.7777    3.3225   -1.9956 H   0  0  0  0  0  0  0  0  0  0  0  0
   -5.2125    2.7249   -2.6625 H   0  0  0  0  0  0  0  0  0  0  0  0
   -3.6839    1.2974   -1.3570 H   0  0  0  0  0  0  0  0  0  0  0  0
   -1.3749   -1.5827   -1.2167 H   0  0  0  0  0  0  0  0  0  0  0  0
   -1.5030    0.1846   -1.4749 H   0  0  0  0  0  0  0  0  0  0  0  0
   -1.8693   -1.2756    1.2435 H   0  0  0  0  0  0  0  0  0  0  0  0
   -2.0977    0.4757    0.9790 H   0  0  0  0  0  0  0  0  0  0  0  0
    0.2048    0.5964    0.1765 H   0  0  0  0  0  0  0  0  0  0  0  0
    0.8909   -1.5124   -0.4833 H   0  0  0  0  0  0  0  0  0  0  0  0
    0.2072   -2.2611    1.0042 H   0  0  0  0  0  0  0  0  0  0  0  0
    1.8943   -0.9784    2.3989 H   0  0  0  0  0  0  0  0  0  0  0  0
    2.3629   -3.0605    1.9138 H   0  0  0  0  0  0  0  0  0  0  0  0
    2.4453    0.8565    0.8381 H   0  0  0  0  0  0  0  0  0  0  0  0
    3.1022   -0.3318   -0.3659 H   0  0  0  0  0  0  0  0  0  0  0  0
    4.2235    1.8503   -0.5414 H   0  0  0  0  0  0  0  0  0  0  0  0
    6.1022    3.3558   -1.0244 H   0  0  0  0  0  0  0  0  0  0  0  0
    8.1961    3.2063    0.2713 H   0  0  0  0  0  0  0  0  0  0  0  0
    9.2921    2.4633    2.3688 H   0  0  0  0  0  0  0  0  0  0  0  0
    9.4502    0.7558    1.7943 H   0  0  0  0  0  0  0  0  0  0  0  0
    8.5873    1.1256    3.3402 H   0  0  0  0  0  0  0  0  0  0  0  0
    6.5241   -0.0230    2.5836 H   0  0  0  0  0  0  0  0  0  0  0  0
   -3.3790   -2.9351   -0.6959 H   0  0  0  0  0  0  0  0  0  0  0  0
   -5.7979   -3.1678   -0.9341 H   0  0  0  0  0  0  0  0  0  0  0  0
  1  2  1  0
  2  3  1  0
  3  4  2  0
  4  5  1  0
  5  6  1  0
  4  7  1  0
  7  8  2  0
  8  9  1  0
  9 10  1  0
 10 11  1  0
 11 12  1  0
 12 13  1  0
 13 14  1  0
 13 15  1  0
 15 16  1  0
 16 17  1  0
 17 18  2  0
 18 19  1  0
 19 20  2  0
 20 21  1  0
 21 22  1  0
 21 23  2  0
  8 24  1  0
 24 25  2  0
 25  3  1  0
 23 17  1  0
  1 26  1  0
  1 27  1  0
  1 28  1  0
  6 29  1  0
  6 30  1  0
  6 31  1  0
  7 32  1  0
  9 33  1  0
  9 34  1  0
 10 35  1  0
 10 36  1  0
 11 37  1  0
 12 38  1  0
 12 39  1  0
 13 40  1  0
 14 41  1  0
 15 42  1  0
 15 43  1  0
 18 44  1  0
 19 45  1  0
 20 46  1  0
 22 47  1  0
 22 48  1  0
 22 49  1  0
 23 50  1  0
 24 51  1  0
 25 52  1  0
M  END
$$$$
