
     RDKit          3D

 34 36  0  0  0  0  0  0  0  0999 V2000
    0.4468   -1.9295   -1.2463 O   0  0  0  0  0  0  0  0  0  0  0  0
   -0.7485   -2.4940   -0.2078 S   0  0  0  0  0  6  0  0  0  0  0  0
   -1.3792   -3.6964   -0.8542 O   0  0  0  0  0  0  0  0  0  0  0  0
   -0.1518   -2.9123    1.1065 O   0  0  0  0  0  0  0  0  0  0  0  0
   -1.9794   -1.2359    0.0446 C   0  0  0  0  0  0  0  0  0  0  0  0
   -1.6947    0.1664    0.1294 C   0  0  0  0  0  0  0  0  0  0  0  0
   -0.3956    0.7103    0.3675 C   0  0  0  0  0  0  0  0  0  0  0  0
    0.6685   -0.0854    0.9108 N   0  0  0  0  0  0  0  0  0  0  0  0
    2.0424    0.0086    0.4887 C   0  0  0  0  0  0  0  0  0  0  0  0
    2.3879    0.5123   -0.7803 C   0  0  0  0  0  0  0  0  0  0  0  0
    3.7276    0.5695   -1.1760 C   0  0  0  0  0  0  0  0  0  0  0  0
    4.7321    0.1176   -0.3167 C   0  0  0  0  0  0  0  0  0  0  0  0
    4.3979   -0.3977    0.9380 C   0  0  0  0  0  0  0  0  0  0  0  0
    3.0593   -0.4572    1.3376 C   0  0  0  0  0  0  0  0  0  0  0  0
   -0.1991    2.1005    0.2961 C   0  0  0  0  0  0  0  0  0  0  0  0
   -1.2581    2.9631    0.0400 C   0  0  0  0  0  0  0  0  0  0  0  0
   -2.5454    2.4616   -0.0991 C   0  0  0  0  0  0  0  0  0  0  0  0
   -2.7795    1.0810   -0.0375 C   0  0  0  0  0  0  0  0  0  0  0  0
   -4.0961    0.6130   -0.1357 C   0  0  0  0  0  0  0  0  0  0  0  0
   -4.3624   -0.7484   -0.0880 C   0  0  0  0  0  0  0  0  0  0  0  0
   -3.3173   -1.6620   -0.0127 C   0  0  0  0  0  0  0  0  0  0  0  0
    1.1648   -2.6106   -1.2062 H   0  0  0  0  0  0  0  0  0  0  0  0
    0.4520   -0.6245    1.7785 H   0  0  0  0  0  0  0  0  0  0  0  0
    1.6240    0.8461   -1.4702 H   0  0  0  0  0  0  0  0  0  0  0  0
    3.9867    0.9588   -2.1522 H   0  0  0  0  0  0  0  0  0  0  0  0
    5.7686    0.1614   -0.6254 H   0  0  0  0  0  0  0  0  0  0  0  0
    5.1762   -0.7535    1.6007 H   0  0  0  0  0  0  0  0  0  0  0  0
    2.8144   -0.8628    2.3111 H   0  0  0  0  0  0  0  0  0  0  0  0
    0.7762    2.5249    0.4988 H   0  0  0  0  0  0  0  0  0  0  0  0
   -1.0873    4.0313    0.0003 H   0  0  0  0  0  0  0  0  0  0  0  0
   -3.3635    3.1564   -0.2497 H   0  0  0  0  0  0  0  0  0  0  0  0
   -4.9243    1.3046   -0.2384 H   0  0  0  0  0  0  0  0  0  0  0  0
   -5.3841   -1.1008   -0.1511 H   0  0  0  0  0  0  0  0  0  0  0  0
   -3.5591   -2.7166   -0.0417 H   0  0  0  0  0  0  0  0  0  0  0  0
  1  2  1  0
  2  3  2  0
  2  4  2  0
  2  5  1  0
  5  6  2  0
  6  7  1  0
  7  8  1  0
  8  9  1  0
  9 10  2  0
 10 11  1  0
 11 12  2  0
 12 13  1  0
 13 14  2  0
  7 15  2  0
 15 16  1  0
 16 17  2  0
 17 18  1  0
 18 19  2  0
 19 20  1  0
 20 21  2  0
 21  5  1  0
 18  6  1  0
 14  9  1  0
  1 22  1  0
  8 23  1  0
 10 24  1  0
 11 25  1  0
 12 26  1  0
 13 27  1  0
 14 28  1  0
 15 29  1  0
 16 30  1  0
 17 31  1  0
 19 32  1  0
 20 33  1  0
 21 34  1  0
M  END
$$$$
