
     RDKit          3D

 77 80  0  0  0  0  0  0  0  0999 V2000
   -6.2714    2.5753    2.3655 C   0  0  0  0  0  0  0  0  0  0  0  0
   -5.1759    1.6160    2.0333 C   0  0  0  0  0  0  0  0  0  0  0  0
   -5.3943    0.3764    2.1042 O   0  0  0  0  0  0  0  0  0  0  0  0
   -3.9043    2.1102    1.5867 N   0  0  0  0  0  0  0  0  0  0  0  0
   -2.8587    1.2367    1.0397 C   0  0  1  0  0  0  0  0  0  0  0  0
   -2.8370    1.3255   -0.4954 C   0  0  0  0  0  0  0  0  0  0  0  0
   -4.1331    0.8353   -1.0887 C   0  0  0  0  0  0  0  0  0  0  0  0
   -4.3406   -0.5341   -1.2900 C   0  0  0  0  0  0  0  0  0  0  0  0
   -5.5602   -0.9987   -1.7836 C   0  0  0  0  0  0  0  0  0  0  0  0
   -6.6058   -0.0998   -2.0755 C   0  0  0  0  0  0  0  0  0  0  0  0
   -7.8483   -0.5341   -2.5690 O   0  0  0  0  0  0  0  0  0  0  0  0
   -8.2750   -2.1748   -2.8747 P   0  0  0  0  0  5  0  0  0  0  0  0
   -7.2148   -2.8353   -4.0165 O   0  0  0  0  0  0  0  0  0  0  0  0
   -9.8535   -2.2346   -3.4803 O   0  0  0  0  0  0  0  0  0  0  0  0
   -8.2014   -2.9693   -1.5899 O   0  0  0  0  0  0  0  0  0  0  0  0
   -6.4048    1.2810   -1.8641 C   0  0  0  0  0  0  0  0  0  0  0  0
   -7.4904    2.2453   -2.1466 C   0  0  0  0  0  0  0  0  0  0  0  0
   -7.3313    3.4797   -1.9505 O   0  0  0  0  0  0  0  0  0  0  0  0
   -5.1684    1.7369   -1.3729 C   0  0  0  0  0  0  0  0  0  0  0  0
   -1.5134    1.6285    1.5924 C   0  0  0  0  0  0  0  0  0  0  0  0
   -1.2125    2.8487    1.7068 O   0  0  0  0  0  0  0  0  0  0  0  0
   -0.5496    0.6161    1.9200 N   0  0  0  0  0  0  0  0  0  0  0  0
    0.8182    0.9459    2.3389 C   0  0  1  0  0  0  0  0  0  0  0  0
    1.4273   -0.2394    3.1134 C   0  0  0  0  0  0  0  0  0  0  0  0
    2.5778    0.1772    4.0410 C   0  0  0  0  0  0  0  0  0  0  0  0
    3.8195    0.6782    3.2929 C   0  0  0  0  0  0  0  0  0  0  0  0
    3.5937    2.0296    2.5998 C   0  0  0  0  0  0  0  0  0  0  0  0
    2.9874    1.8478    1.2725 N   0  0  0  0  0  0  0  0  0  0  0  0
    3.7708    2.1881    0.0746 C   0  0  0  0  0  0  0  0  0  0  0  0
    4.5648    0.9942   -0.3838 C   0  0  0  0  0  0  0  0  0  0  0  0
    4.0521    0.1321   -1.3643 C   0  0  0  0  0  0  0  0  0  0  0  0
    4.7709   -1.0008   -1.7554 C   0  0  0  0  0  0  0  0  0  0  0  0
    6.0140   -1.2964   -1.1678 C   0  0  0  0  0  0  0  0  0  0  0  0
    6.5223   -0.4313   -0.1824 C   0  0  0  0  0  0  0  0  0  0  0  0
    5.8035    0.7022    0.2060 C   0  0  0  0  0  0  0  0  0  0  0  0
    6.7755   -2.5035   -1.5788 C   0  0  0  0  0  0  0  0  0  0  0  0
    6.8404   -2.8823   -2.9333 C   0  0  0  0  0  0  0  0  0  0  0  0
    7.5580   -4.0193   -3.3172 C   0  0  0  0  0  0  0  0  0  0  0  0
    8.2166   -4.7901   -2.3567 C   0  0  0  0  0  0  0  0  0  0  0  0
    8.1594   -4.4254   -1.0098 C   0  0  0  0  0  0  0  0  0  0  0  0
    7.4440   -3.2889   -0.6202 C   0  0  0  0  0  0  0  0  0  0  0  0
    1.6663    1.2796    1.1312 C   0  0  0  0  0  0  0  0  0  0  0  0
    1.2159    1.0279   -0.0210 O   0  0  0  0  0  0  0  0  0  0  0  0
   -7.0785    2.0636    2.9315 H   0  0  0  0  0  0  0  0  0  0  0  0
   -6.6932    2.9904    1.4264 H   0  0  0  0  0  0  0  0  0  0  0  0
   -5.8711    3.4046    2.9853 H   0  0  0  0  0  0  0  0  0  0  0  0
   -3.7879    3.1453    1.4945 H   0  0  0  0  0  0  0  0  0  0  0  0
   -3.0541    0.1816    1.3326 H   0  0  0  0  0  0  0  0  0  0  0  0
   -2.6447    2.3752   -0.8112 H   0  0  0  0  0  0  0  0  0  0  0  0
   -1.9986    0.7101   -0.8915 H   0  0  0  0  0  0  0  0  0  0  0  0
   -3.5574   -1.2450   -1.0569 H   0  0  0  0  0  0  0  0  0  0  0  0
   -5.6760   -2.0628   -1.9258 H   0  0  0  0  0  0  0  0  0  0  0  0
   -7.5522   -3.7531   -4.1732 H   0  0  0  0  0  0  0  0  0  0  0  0
  -10.3982   -1.7455   -2.8131 H   0  0  0  0  0  0  0  0  0  0  0  0
   -8.4436    1.9023   -2.5267 H   0  0  0  0  0  0  0  0  0  0  0  0
   -5.0114    2.7941   -1.1944 H   0  0  0  0  0  0  0  0  0  0  0  0
   -0.7963   -0.3841    1.7393 H   0  0  0  0  0  0  0  0  0  0  0  0
    0.7709    1.8294    3.0123 H   0  0  0  0  0  0  0  0  0  0  0  0
    1.7683   -1.0329    2.4115 H   0  0  0  0  0  0  0  0  0  0  0  0
    0.6387   -0.6899    3.7559 H   0  0  0  0  0  0  0  0  0  0  0  0
    2.8738   -0.7118    4.6394 H   0  0  0  0  0  0  0  0  0  0  0  0
    2.2279    0.9489    4.7613 H   0  0  0  0  0  0  0  0  0  0  0  0
    4.6355    0.8017    4.0380 H   0  0  0  0  0  0  0  0  0  0  0  0
    4.1595   -0.0841    2.5583 H   0  0  0  0  0  0  0  0  0  0  0  0
    2.9638    2.7026    3.2199 H   0  0  0  0  0  0  0  0  0  0  0  0
    4.5803    2.5334    2.5066 H   0  0  0  0  0  0  0  0  0  0  0  0
    4.4587    3.0354    0.2881 H   0  0  0  0  0  0  0  0  0  0  0  0
    3.1029    2.5512   -0.7370 H   0  0  0  0  0  0  0  0  0  0  0  0
    3.0943    0.3339   -1.8266 H   0  0  0  0  0  0  0  0  0  0  0  0
    4.3439   -1.6573   -2.5032 H   0  0  0  0  0  0  0  0  0  0  0  0
    7.4831   -0.6232    0.2783 H   0  0  0  0  0  0  0  0  0  0  0  0
    6.2134    1.3517    0.9692 H   0  0  0  0  0  0  0  0  0  0  0  0
    6.3516   -2.2902   -3.6967 H   0  0  0  0  0  0  0  0  0  0  0  0
    7.6062   -4.3010   -4.3612 H   0  0  0  0  0  0  0  0  0  0  0  0
    8.7712   -5.6701   -2.6561 H   0  0  0  0  0  0  0  0  0  0  0  0
    8.6669   -5.0258   -0.2659 H   0  0  0  0  0  0  0  0  0  0  0  0
    7.3988   -3.0347    0.4313 H   0  0  0  0  0  0  0  0  0  0  0  0
  1  2  1  0
  2  3  2  0
  2  4  1  0
  4  5  1  0
  5  6  1  0
  6  7  1  0
  7  8  2  0
  8  9  1  0
  9 10  2  0
 10 11  1  0
 11 12  1  0
 12 13  1  0
 12 14  1  0
 12 15  2  0
 10 16  1  0
 16 17  1  0
 17 18  2  0
 16 19  2  0
  5 20  1  0
 20 21  2  0
 20 22  1  0
 22 23  1  0
 23 24  1  0
 24 25  1  0
 25 26  1  0
 26 27  1  0
 27 28  1  0
 28 29  1  0
 29 30  1  0
 30 31  2  0
 31 32  1  0
 32 33  2  0
 33 34  1  0
 34 35  2  0
 33 36  1  0
 36 37  2  0
 37 38  1  0
 38 39  2  0
 39 40  1  0
 40 41  2  0
 28 42  1  0
 42 43  2  0
 19  7  1  0
 42 23  1  0
 35 30  1  0
 41 36  1  0
  1 44  1  0
  1 45  1  0
  1 46  1  0
  4 47  1  0
  5 48  1  6
  6 49  1  0
  6 50  1  0
  8 51  1  0
  9 52  1  0
 13 53  1  0
 14 54  1  0
 17 55  1  0
 19 56  1  0
 22 57  1  0
 23 58  1  1
 24 59  1  0
 24 60  1  0
 25 61  1  0
 25 62  1  0
 26 63  1  0
 26 64  1  0
 27 65  1  0
 27 66  1  0
 29 67  1  0
 29 68  1  0
 31 69  1  0
 32 70  1  0
 34 71  1  0
 35 72  1  0
 37 73  1  0
 38 74  1  0
 39 75  1  0
 40 76  1  0
 41 77  1  0
M  END
$$$$
