
     RDKit          3D

 24 23  0  0  0  0  0  0  0  0999 V2000
    3.5921    0.2294    0.6941 N   0  0  0  0  0  0  0  0  0  0  0  0
    2.5323   -0.6131    0.1489 C   0  0  0  0  0  0  0  0  0  0  0  0
    1.1657    0.0340    0.3925 C   0  0  0  0  0  0  0  0  0  0  0  0
    0.0271   -0.8670   -0.1231 C   0  0  0  0  0  0  0  0  0  0  0  0
   -1.3833   -0.1989   -0.1495 C   0  0  1  0  0  0  0  0  0  0  0  0
   -2.3470   -1.2001   -0.6291 N   0  0  0  0  0  0  0  0  0  0  0  0
   -1.8205    0.2403    1.2742 C   0  0  0  0  0  0  0  0  0  0  0  0
   -1.0922    1.3304    1.7192 F   0  0  0  0  0  0  0  0  0  0  0  0
   -1.6777   -0.8013    2.1750 F   0  0  0  0  0  0  0  0  0  0  0  0
   -1.4032    0.9892   -1.1009 C   0  0  0  0  0  0  0  0  0  0  0  0
   -2.1944    2.1022   -0.8247 O   0  0  0  0  0  0  0  0  0  0  0  0
   -0.7628    0.9444   -2.1867 O   0  0  0  0  0  0  0  0  0  0  0  0
    3.6603    1.0913    0.1050 H   0  0  0  0  0  0  0  0  0  0  0  0
    4.4967   -0.2819    0.5767 H   0  0  0  0  0  0  0  0  0  0  0  0
    2.6947   -0.7617   -0.9425 H   0  0  0  0  0  0  0  0  0  0  0  0
    2.5640   -1.6062    0.6491 H   0  0  0  0  0  0  0  0  0  0  0  0
    1.1383    1.0199   -0.1189 H   0  0  0  0  0  0  0  0  0  0  0  0
    1.0490    0.1941    1.4852 H   0  0  0  0  0  0  0  0  0  0  0  0
    0.2798   -1.2081   -1.1520 H   0  0  0  0  0  0  0  0  0  0  0  0
   -0.0113   -1.7834    0.5065 H   0  0  0  0  0  0  0  0  0  0  0  0
   -3.2976   -0.7675   -0.7029 H   0  0  0  0  0  0  0  0  0  0  0  0
   -2.0843   -1.5075   -1.5948 H   0  0  0  0  0  0  0  0  0  0  0  0
   -2.8915    0.5370    1.2657 H   0  0  0  0  0  0  0  0  0  0  0  0
   -2.2342    2.8845   -1.4669 H   0  0  0  0  0  0  0  0  0  0  0  0
  1  2  1  0
  2  3  1  0
  3  4  1  0
  4  5  1  0
  5  6  1  6
  5  7  1  0
  7  8  1  0
  7  9  1  0
  5 10  1  0
 10 11  1  0
 10 12  2  0
  1 13  1  0
  1 14  1  0
  2 15  1  0
  2 16  1  0
  3 17  1  0
  3 18  1  0
  4 19  1  0
  4 20  1  0
  6 21  1  0
  6 22  1  0
  7 23  1  0
 11 24  1  0
M  END
$$$$
