
     RDKit          3D

 66 68  0  0  0  0  0  0  0  0999 V2000
   -4.8614    2.6231    2.4506 C   0  0  0  0  0  0  0  0  0  0  0  0
   -5.1977    1.5416    1.4767 C   0  0  0  0  0  0  0  0  0  0  0  0
   -5.9051    1.8093    0.4680 O   0  0  0  0  0  0  0  0  0  0  0  0
   -4.7320    0.2043    1.7061 N   0  0  0  0  0  0  0  0  0  0  0  0
   -4.9237   -0.8756    0.7277 C   0  0  2  0  0  0  0  0  0  0  0  0
   -4.7676   -2.2647    1.3998 C   0  0  1  0  0  0  0  0  0  0  0  0
   -6.0189   -2.7098    1.8592 O   0  0  0  0  0  0  0  0  0  0  0  0
   -4.1708   -3.3159    0.4376 C   0  0  2  0  0  0  0  0  0  0  0  0
   -2.7800   -3.3934    0.6338 O   0  0  0  0  0  0  0  0  0  0  0  0
   -4.4697   -2.9872   -1.0514 C   0  0  1  0  0  0  0  0  0  0  0  0
   -5.9325   -3.2909   -1.4224 C   0  0  0  0  0  0  0  0  0  0  0  0
   -6.1323   -3.1252   -2.8006 O   0  0  0  0  0  0  0  0  0  0  0  0
   -4.1229   -1.6697   -1.4758 O   0  0  0  0  0  0  0  0  0  0  0  0
   -3.9376   -0.7065   -0.4444 C   0  0  2  0  0  0  0  0  0  0  0  0
   -2.6129   -0.7499    0.0456 O   0  0  0  0  0  0  0  0  0  0  0  0
   -1.5535   -0.0042   -1.0694 P   0  0  0  0  0  5  0  0  0  0  0  0
   -1.6266   -0.8206   -2.5503 O   0  0  0  0  0  0  0  0  0  0  0  0
   -1.9497    1.4407   -1.2837 O   0  0  0  0  0  0  0  0  0  0  0  0
    0.0516   -0.0665   -0.5042 O   0  0  0  0  0  0  0  0  0  0  0  0
    0.0352    0.2889    1.1635 P   0  0  0  0  0  5  0  0  0  0  0  0
   -0.8981    1.6647    1.5012 O   0  0  0  0  0  0  0  0  0  0  0  0
   -0.5383   -0.8880    1.9202 O   0  0  0  0  0  0  0  0  0  0  0  0
    1.6363    0.5276    1.7010 O   0  0  0  0  0  0  0  0  0  0  0  0
    2.1832    1.6287    1.0143 C   0  0  0  0  0  0  0  0  0  0  0  0
    3.6719    1.7385    1.3526 C   0  0  1  0  0  0  0  0  0  0  0  0
    4.3522    0.5889    0.9056 O   0  0  0  0  0  0  0  0  0  0  0  0
    5.6896    0.9727    0.6521 C   0  0  2  0  0  0  0  0  0  0  0  0
    5.7650    2.5061    0.5090 C   0  0  2  0  0  0  0  0  0  0  0  0
    6.6266    3.0781    1.4666 O   0  0  0  0  0  0  0  0  0  0  0  0
    4.3227    2.9464    0.6777 C   0  0  2  0  0  0  0  0  0  0  0  0
    4.1779    4.1473    1.4014 O   0  0  0  0  0  0  0  0  0  0  0  0
    6.1947    0.3015   -0.5647 N   0  0  0  0  0  0  0  0  0  0  0  0
    7.4506   -0.2407   -0.5440 C   0  0  0  0  0  0  0  0  0  0  0  0
    7.9752   -0.8645   -1.6726 C   0  0  0  0  0  0  0  0  0  0  0  0
    7.2013   -0.9150   -2.8265 C   0  0  0  0  0  0  0  0  0  0  0  0
    7.6502   -1.4743   -3.8625 O   0  0  0  0  0  0  0  0  0  0  0  0
    5.9632   -0.3565   -2.8344 N   0  0  0  0  0  0  0  0  0  0  0  0
    5.4586    0.2532   -1.7257 C   0  0  0  0  0  0  0  0  0  0  0  0
    4.3116    0.7749   -1.7831 O   0  0  0  0  0  0  0  0  0  0  0  0
   -5.1903    3.6120    2.0664 H   0  0  0  0  0  0  0  0  0  0  0  0
   -3.7635    2.6491    2.6129 H   0  0  0  0  0  0  0  0  0  0  0  0
   -5.3694    2.4225    3.4167 H   0  0  0  0  0  0  0  0  0  0  0  0
   -4.2043    0.0199    2.5893 H   0  0  0  0  0  0  0  0  0  0  0  0
   -5.9546   -0.7964    0.3174 H   0  0  0  0  0  0  0  0  0  0  0  0
   -4.0771   -2.1950    2.2733 H   0  0  0  0  0  0  0  0  0  0  0  0
   -6.2504   -2.1512    2.6470 H   0  0  0  0  0  0  0  0  0  0  0  0
   -4.6100   -4.3116    0.6875 H   0  0  0  0  0  0  0  0  0  0  0  0
   -2.4774   -4.2552    0.2443 H   0  0  0  0  0  0  0  0  0  0  0  0
   -3.8547   -3.6873   -1.6589 H   0  0  0  0  0  0  0  0  0  0  0  0
   -6.1654   -4.3465   -1.1662 H   0  0  0  0  0  0  0  0  0  0  0  0
   -6.6388   -2.6507   -0.8508 H   0  0  0  0  0  0  0  0  0  0  0  0
   -6.2713   -2.1543   -2.9547 H   0  0  0  0  0  0  0  0  0  0  0  0
   -4.1667    0.2900   -0.8849 H   0  0  0  0  0  0  0  0  0  0  0  0
   -0.9418   -0.3815   -3.1152 H   0  0  0  0  0  0  0  0  0  0  0  0
   -0.6194    2.3404    0.8337 H   0  0  0  0  0  0  0  0  0  0  0  0
    1.6829    2.5677    1.3400 H   0  0  0  0  0  0  0  0  0  0  0  0
    2.0802    1.5106   -0.0892 H   0  0  0  0  0  0  0  0  0  0  0  0
    3.7820    1.8007    2.4595 H   0  0  0  0  0  0  0  0  0  0  0  0
    6.2868    0.6461    1.5346 H   0  0  0  0  0  0  0  0  0  0  0  0
    6.1280    2.8017   -0.5005 H   0  0  0  0  0  0  0  0  0  0  0  0
    6.3422    2.7691    2.3666 H   0  0  0  0  0  0  0  0  0  0  0  0
    3.8833    3.0954   -0.3342 H   0  0  0  0  0  0  0  0  0  0  0  0
    4.3648    3.9697    2.3591 H   0  0  0  0  0  0  0  0  0  0  0  0
    8.0603   -0.1943    0.3507 H   0  0  0  0  0  0  0  0  0  0  0  0
    8.9679   -1.2972   -1.6480 H   0  0  0  0  0  0  0  0  0  0  0  0
    5.3901   -0.3912   -3.7086 H   0  0  0  0  0  0  0  0  0  0  0  0
  1  2  1  0
  2  3  2  0
  2  4  1  0
  4  5  1  0
  5  6  1  0
  6  7  1  0
  6  8  1  0
  8  9  1  0
  8 10  1  0
 10 11  1  0
 11 12  1  0
 10 13  1  0
 13 14  1  0
 14 15  1  0
 15 16  1  0
 16 17  1  0
 16 18  2  0
 16 19  1  0
 19 20  1  0
 20 21  1  0
 20 22  2  0
 20 23  1  0
 23 24  1  0
 24 25  1  0
 25 26  1  0
 26 27  1  0
 27 28  1  0
 28 29  1  0
 28 30  1  0
 30 31  1  0
 27 32  1  0
 32 33  1  0
 33 34  2  0
 34 35  1  0
 35 36  2  0
 35 37  1  0
 37 38  1  0
 38 39  2  0
 14  5  1  0
 30 25  1  0
 38 32  1  0
  1 40  1  0
  1 41  1  0
  1 42  1  0
  4 43  1  0
  5 44  1  6
  6 45  1  1
  7 46  1  0
  8 47  1  1
  9 48  1  0
 10 49  1  6
 11 50  1  0
 11 51  1  0
 12 52  1  0
 14 53  1  6
 17 54  1  0
 21 55  1  0
 24 56  1  0
 24 57  1  0
 25 58  1  1
 27 59  1  1
 28 60  1  6
 29 61  1  0
 30 62  1  6
 31 63  1  0
 33 64  1  0
 34 65  1  0
 37 66  1  0
M  END
$$$$
