
     RDKit          3D

 51 52  0  0  0  0  0  0  0  0999 V2000
    2.7121    5.9065   -5.7818 N   0  0  0  0  0  0  0  0  0  0  0  0
    4.0054    5.5897   -5.2560 C   0  0  0  0  0  0  0  0  0  0  0  0
    4.1424    4.7324   -4.2920 N   0  0  0  0  0  0  0  0  0  0  0  0
    3.0626    4.0888   -3.7297 O   0  0  0  0  0  0  0  0  0  0  0  0
    3.2509    3.1565   -2.6770 C   0  0  0  0  0  0  0  0  0  0  0  0
    1.8988    2.5997   -2.2410 C   0  0  0  0  0  0  0  0  0  0  0  0
    2.0613    1.6726   -1.1232 N   0  0  0  0  0  0  0  0  0  0  0  0
    2.5689    0.3413   -1.2915 C   0  0  0  0  0  0  0  0  0  0  0  0
    2.8848   -0.0793   -2.4375 O   0  0  0  0  0  0  0  0  0  0  0  0
    2.6851   -0.5758   -0.1113 C   0  0  0  0  0  0  0  0  0  0  0  0
    1.3518   -1.2308    0.1801 C   0  0  0  0  0  0  0  0  0  0  0  0
    0.9280   -2.3773   -0.5303 C   0  0  0  0  0  0  0  0  0  0  0  0
   -0.3221   -2.9419   -0.2604 C   0  0  0  0  0  0  0  0  0  0  0  0
   -1.1615   -2.3806    0.7010 C   0  0  0  0  0  0  0  0  0  0  0  0
   -0.7641   -1.2379    1.4184 C   0  0  0  0  0  0  0  0  0  0  0  0
   -1.6192   -0.6275    2.4088 N   0  0  0  0  0  0  0  0  0  0  0  0
   -2.8328   -1.2326    2.9632 C   0  0  0  0  0  0  0  0  0  0  0  0
   -2.4882   -2.2990    4.0132 C   0  0  0  0  0  0  0  0  0  0  0  0
   -1.7320   -3.3111    3.4469 F   0  0  0  0  0  0  0  0  0  0  0  0
   -1.7396   -1.7162    5.0233 F   0  0  0  0  0  0  0  0  0  0  0  0
   -3.7506   -2.8811    4.5930 C   0  0  0  0  0  0  0  0  0  0  0  0
   -4.4789   -3.8580    3.8942 C   0  0  0  0  0  0  0  0  0  0  0  0
   -5.6652   -4.3512    4.4411 C   0  0  0  0  0  0  0  0  0  0  0  0
   -6.1206   -3.8641    5.6670 C   0  0  0  0  0  0  0  0  0  0  0  0
   -5.3805   -2.8825    6.3289 C   0  0  0  0  0  0  0  0  0  0  0  0
   -4.2272   -2.4138    5.7814 N   0  0  0  0  0  0  0  0  0  0  0  0
    0.4919   -0.6649    1.1443 C   0  0  0  0  0  0  0  0  0  0  0  0
    0.8816    0.4420    1.8290 F   0  0  0  0  0  0  0  0  0  0  0  0
    1.7554   -2.9911   -1.5419 C   0  0  0  0  0  0  0  0  0  0  0  0
    2.4182   -3.4834   -2.3529 N   0  0  0  0  0  0  0  0  0  0  0  0
    5.1631    6.2245   -5.7980 N   0  0  0  0  0  0  0  0  0  0  0  0
    1.8448    5.4609   -5.4089 H   0  0  0  0  0  0  0  0  0  0  0  0
    2.6173    6.5985   -6.5577 H   0  0  0  0  0  0  0  0  0  0  0  0
    3.9077    2.3335   -3.0307 H   0  0  0  0  0  0  0  0  0  0  0  0
    3.7395    3.6652   -1.8178 H   0  0  0  0  0  0  0  0  0  0  0  0
    1.2487    3.4438   -1.9231 H   0  0  0  0  0  0  0  0  0  0  0  0
    1.4009    2.0853   -3.0915 H   0  0  0  0  0  0  0  0  0  0  0  0
    1.7421    1.9779   -0.1765 H   0  0  0  0  0  0  0  0  0  0  0  0
    3.4614   -1.3468   -0.3062 H   0  0  0  0  0  0  0  0  0  0  0  0
    3.0468    0.0003    0.7670 H   0  0  0  0  0  0  0  0  0  0  0  0
   -0.6535   -3.8212   -0.8005 H   0  0  0  0  0  0  0  0  0  0  0  0
   -2.1202   -2.8480    0.8698 H   0  0  0  0  0  0  0  0  0  0  0  0
   -1.3703    0.3227    2.7659 H   0  0  0  0  0  0  0  0  0  0  0  0
   -3.4315   -0.4353    3.4571 H   0  0  0  0  0  0  0  0  0  0  0  0
   -3.4698   -1.6459    2.1538 H   0  0  0  0  0  0  0  0  0  0  0  0
   -4.1339   -4.2290    2.9370 H   0  0  0  0  0  0  0  0  0  0  0  0
   -6.2326   -5.1067    3.9132 H   0  0  0  0  0  0  0  0  0  0  0  0
   -7.0398   -4.2396    6.0976 H   0  0  0  0  0  0  0  0  0  0  0  0
   -5.7243   -2.4902    7.2766 H   0  0  0  0  0  0  0  0  0  0  0  0
    5.0736    6.9171   -6.5740 H   0  0  0  0  0  0  0  0  0  0  0  0
    6.1133    6.0037   -5.4250 H   0  0  0  0  0  0  0  0  0  0  0  0
  1  2  1  0
  2  3  2  3
  3  4  1  0
  4  5  1  0
  5  6  1  0
  6  7  1  0
  7  8  1  0
  8  9  2  0
  8 10  1  0
 10 11  1  0
 11 12  2  0
 12 13  1  0
 13 14  2  0
 14 15  1  0
 15 16  1  0
 16 17  1  0
 17 18  1  0
 18 19  1  0
 18 20  1  0
 18 21  1  0
 21 22  2  0
 22 23  1  0
 23 24  2  0
 24 25  1  0
 25 26  2  0
 15 27  2  0
 27 28  1  0
 12 29  1  0
 29 30  3  0
  2 31  1  0
 27 11  1  0
 26 21  1  0
  1 32  1  0
  1 33  1  0
  5 34  1  0
  5 35  1  0
  6 36  1  0
  6 37  1  0
  7 38  1  0
 10 39  1  0
 10 40  1  0
 13 41  1  0
 14 42  1  0
 16 43  1  0
 17 44  1  0
 17 45  1  0
 22 46  1  0
 23 47  1  0
 24 48  1  0
 25 49  1  0
 31 50  1  0
 31 51  1  0
M  END
$$$$
