
     RDKit          3D

127129  0  0  0  0  0  0  0  0999 V2000
    8.7735    1.2270   -5.9794 C   0  0  0  0  0  0  0  0  0  0  0  0
    9.3469    1.3342   -4.5692 C   0  0  0  0  0  0  0  0  0  0  0  0
    8.2311    1.5129   -3.5297 C   0  0  0  0  0  0  0  0  0  0  0  0
    8.7528    1.6206   -2.1152 C   0  0  0  0  0  0  0  0  0  0  0  0
    9.9942    1.5964   -1.8991 O   0  0  0  0  0  0  0  0  0  0  0  0
    7.8968    1.7884   -1.0171 O   0  0  0  0  0  0  0  0  0  0  0  0
    6.4694    1.6915   -1.0469 C   0  0  1  0  0  0  0  0  0  0  0  0
    6.0209    0.3273   -0.4447 C   0  0  2  0  0  0  0  0  0  0  0  0
    6.0531   -0.8059   -1.4748 C   0  0  0  0  0  0  0  0  0  0  0  0
    4.7533    0.3764    0.2036 O   0  0  0  0  0  0  0  0  0  0  0  0
    3.8379    1.2180   -0.4804 C   0  0  2  0  0  0  0  0  0  0  0  0
    4.2753    2.6953   -0.3662 C   0  0  0  0  0  0  0  0  0  0  0  0
    5.8162    2.8437   -0.2401 C   0  0  2  0  0  0  0  0  0  0  0  0
    6.2315    4.2252   -0.7907 C   0  0  0  0  0  0  0  0  0  0  0  0
    6.1284    2.7348    1.1612 O   0  0  0  0  0  0  0  0  0  0  0  0
    7.3810    2.8929    1.7731 C   0  0  0  0  0  0  0  0  0  0  0  0
    8.3827    3.3101    1.1334 O   0  0  0  0  0  0  0  0  0  0  0  0
    7.5282    2.5286    3.2152 C   0  0  0  0  0  0  0  0  0  0  0  0
    7.5826    1.0140    3.3774 C   0  0  0  0  0  0  0  0  0  0  0  0
    2.5512    1.0809    0.0895 O   0  0  0  0  0  0  0  0  0  0  0  0
    2.0022   -0.2098   -0.1479 C   0  0  2  0  0  0  0  0  0  0  0  0
    0.7152   -0.0556   -1.0134 C   0  0  1  0  0  0  0  0  0  0  0  0
    0.9480   -0.5212   -2.4519 C   0  0  0  0  0  0  0  0  0  0  0  0
   -0.3541   -0.8055   -0.4692 O   0  0  0  0  0  0  0  0  0  0  0  0
   -0.7727   -0.2274    0.7578 C   0  0  1  0  0  0  0  0  0  0  0  0
   -1.8580   -0.9709    1.2823 O   0  0  0  0  0  0  0  0  0  0  0  0
   -3.0151   -0.8927    0.4551 C   0  0  1  0  0  0  0  0  0  0  0  0
   -3.3498   -2.3329   -0.0669 C   0  0  1  0  0  0  0  0  0  0  0  0
   -3.3845   -3.4104    1.0526 C   0  0  0  0  0  0  0  0  0  0  0  0
   -2.9818   -4.7594    0.5274 C   0  0  0  0  0  0  0  0  0  0  0  0
   -3.7993   -5.6619    0.4424 O   0  0  0  0  0  0  0  0  0  0  0  0
   -4.6104   -2.4497   -0.9673 C   0  0  0  0  0  0  0  0  0  0  0  0
   -4.6285   -1.5920   -2.2646 C   0  0  1  0  0  0  0  0  0  0  0  0
   -3.4832   -1.9751   -3.2164 C   0  0  0  0  0  0  0  0  0  0  0  0
   -5.9977   -1.7165   -2.9944 C   0  0  1  0  0  0  0  0  0  0  0  0
   -6.2252   -3.0539   -3.3607 O   0  0  0  0  0  0  0  0  0  0  0  0
   -7.1230   -1.2345   -2.1095 C   0  0  0  0  0  0  0  0  0  0  0  0
   -7.3185    0.0704   -1.8944 C   0  0  0  0  0  0  0  0  0  0  0  0
   -8.2032    0.6194   -0.8458 C   0  0  0  0  0  0  0  0  0  0  0  0
   -8.6002   -0.0634    0.2387 C   0  0  0  0  0  0  0  0  0  0  0  0
   -9.2617    0.6426    1.3904 C   0  0  0  0  0  0  0  0  0  0  0  0
   -8.2045    1.1154    2.4083 C   0  0  1  0  0  0  0  0  0  0  0  0
   -8.7113    2.3187    3.2041 C   0  0  0  0  0  0  0  0  0  0  0  0
   -7.9081    0.0501    3.3180 O   0  0  0  0  0  0  0  0  0  0  0  0
   -6.6945   -0.1160    4.0048 C   0  0  0  0  0  0  0  0  0  0  0  0
   -6.7015   -0.7412    5.0977 O   0  0  0  0  0  0  0  0  0  0  0  0
   -5.3687    0.2830    3.4049 C   0  0  0  0  0  0  0  0  0  0  0  0
   -4.8323   -0.7602    2.3790 C   0  0  1  0  0  0  0  0  0  0  0  0
   -5.8882   -1.5393    1.8744 O   0  0  0  0  0  0  0  0  0  0  0  0
   -4.1034   -0.0549    1.2063 C   0  0  2  0  0  0  0  0  0  0  0  0
   -5.0682    0.4412    0.2890 O   0  0  0  0  0  0  0  0  0  0  0  0
   -4.7943    1.7834   -0.0580 C   0  0  0  0  0  0  0  0  0  0  0  0
    0.3851   -0.2208    1.8000 C   0  0  2  0  0  0  0  0  0  0  0  0
    0.6788    1.1054    2.1663 O   0  0  0  0  0  0  0  0  0  0  0  0
    1.6837   -0.8779    1.2249 C   0  0  1  0  0  0  0  0  0  0  0  0
    1.6230   -2.3673    1.0513 N   0  0  0  0  0  0  0  0  0  0  0  0
    0.8005   -3.0759    2.0506 C   0  0  0  0  0  0  0  0  0  0  0  0
    2.9806   -2.9536    1.0928 C   0  0  0  0  0  0  0  0  0  0  0  0
    8.2107    2.1492   -6.2383 H   0  0  0  0  0  0  0  0  0  0  0  0
    9.6012    1.0997   -6.7086 H   0  0  0  0  0  0  0  0  0  0  0  0
    8.0957    0.3501   -6.0549 H   0  0  0  0  0  0  0  0  0  0  0  0
   10.0395    2.2033   -4.5297 H   0  0  0  0  0  0  0  0  0  0  0  0
    9.9228    0.4096   -4.3456 H   0  0  0  0  0  0  0  0  0  0  0  0
    7.6632    2.4389   -3.7654 H   0  0  0  0  0  0  0  0  0  0  0  0
    7.5404    0.6466   -3.5957 H   0  0  0  0  0  0  0  0  0  0  0  0
    6.0939    1.7781   -2.0899 H   0  0  0  0  0  0  0  0  0  0  0  0
    6.7581    0.0574    0.3433 H   0  0  0  0  0  0  0  0  0  0  0  0
    7.0918   -0.9657   -1.8324 H   0  0  0  0  0  0  0  0  0  0  0  0
    5.7006   -1.7489   -1.0067 H   0  0  0  0  0  0  0  0  0  0  0  0
    5.4024   -0.5756   -2.3439 H   0  0  0  0  0  0  0  0  0  0  0  0
    3.7903    0.9581   -1.5660 H   0  0  0  0  0  0  0  0  0  0  0  0
    3.8919    3.2305   -1.2635 H   0  0  0  0  0  0  0  0  0  0  0  0
    3.7915    3.1696    0.5170 H   0  0  0  0  0  0  0  0  0  0  0  0
    5.8758    4.3532   -1.8358 H   0  0  0  0  0  0  0  0  0  0  0  0
    7.3319    4.3503   -0.8080 H   0  0  0  0  0  0  0  0  0  0  0  0
    5.7936    5.0317   -0.1648 H   0  0  0  0  0  0  0  0  0  0  0  0
    8.4560    2.9787    3.6307 H   0  0  0  0  0  0  0  0  0  0  0  0
    6.6622    2.9298    3.7838 H   0  0  0  0  0  0  0  0  0  0  0  0
    7.7019    0.7592    4.4515 H   0  0  0  0  0  0  0  0  0  0  0  0
    8.4446    0.5965    2.8139 H   0  0  0  0  0  0  0  0  0  0  0  0
    6.6431    0.5517    3.0050 H   0  0  0  0  0  0  0  0  0  0  0  0
    2.7051   -0.8754   -0.6986 H   0  0  0  0  0  0  0  0  0  0  0  0
    0.4315    1.0221   -1.0829 H   0  0  0  0  0  0  0  0  0  0  0  0
    1.7734    0.0595   -2.9159 H   0  0  0  0  0  0  0  0  0  0  0  0
    0.0259   -0.3646   -3.0512 H   0  0  0  0  0  0  0  0  0  0  0  0
    1.2042   -1.6023   -2.4726 H   0  0  0  0  0  0  0  0  0  0  0  0
   -1.1142    0.8245    0.5889 H   0  0  0  0  0  0  0  0  0  0  0  0
   -2.8092   -0.3088   -0.4735 H   0  0  0  0  0  0  0  0  0  0  0  0
   -2.4798   -2.6001   -0.7062 H   0  0  0  0  0  0  0  0  0  0  0  0
   -4.3964   -3.4904    1.4937 H   0  0  0  0  0  0  0  0  0  0  0  0
   -2.6886   -3.1641    1.8789 H   0  0  0  0  0  0  0  0  0  0  0  0
   -1.9599   -4.9295    0.2036 H   0  0  0  0  0  0  0  0  0  0  0  0
   -4.7296   -3.5147   -1.2642 H   0  0  0  0  0  0  0  0  0  0  0  0
   -5.4979   -2.2085   -0.3606 H   0  0  0  0  0  0  0  0  0  0  0  0
   -4.4906   -0.5230   -2.0044 H   0  0  0  0  0  0  0  0  0  0  0  0
   -3.5881   -1.4381   -4.1831 H   0  0  0  0  0  0  0  0  0  0  0  0
   -3.4820   -3.0683   -3.4140 H   0  0  0  0  0  0  0  0  0  0  0  0
   -2.5031   -1.6817   -2.7868 H   0  0  0  0  0  0  0  0  0  0  0  0
   -5.9721   -1.0853   -3.9147 H   0  0  0  0  0  0  0  0  0  0  0  0
   -6.9570   -3.0477   -4.0320 H   0  0  0  0  0  0  0  0  0  0  0  0
   -7.7168   -1.9750   -1.5896 H   0  0  0  0  0  0  0  0  0  0  0  0
   -6.7545    0.7857   -2.4805 H   0  0  0  0  0  0  0  0  0  0  0  0
   -8.4190    1.6796   -0.9036 H   0  0  0  0  0  0  0  0  0  0  0  0
   -8.3202   -1.0984    0.3801 H   0  0  0  0  0  0  0  0  0  0  0  0
   -9.8540    1.5029    1.0053 H   0  0  0  0  0  0  0  0  0  0  0  0
   -9.9783   -0.0503    1.8820 H   0  0  0  0  0  0  0  0  0  0  0  0
   -7.3015    1.4340    1.8481 H   0  0  0  0  0  0  0  0  0  0  0  0
   -7.9400    2.6360    3.9376 H   0  0  0  0  0  0  0  0  0  0  0  0
   -9.6406    2.0552    3.7530 H   0  0  0  0  0  0  0  0  0  0  0  0
   -8.9177    3.1725    2.5240 H   0  0  0  0  0  0  0  0  0  0  0  0
   -4.6223    0.3906    4.2223 H   0  0  0  0  0  0  0  0  0  0  0  0
   -5.4532    1.2951    2.9636 H   0  0  0  0  0  0  0  0  0  0  0  0
   -4.1008   -1.4108    2.9118 H   0  0  0  0  0  0  0  0  0  0  0  0
   -6.0723   -2.2528    2.5402 H   0  0  0  0  0  0  0  0  0  0  0  0
   -3.5234    0.7752    1.6856 H   0  0  0  0  0  0  0  0  0  0  0  0
   -4.9069    2.4511    0.8238 H   0  0  0  0  0  0  0  0  0  0  0  0
   -3.7781    1.8895   -0.4974 H   0  0  0  0  0  0  0  0  0  0  0  0
   -5.5263    2.1154   -0.8199 H   0  0  0  0  0  0  0  0  0  0  0  0
    0.0731   -0.7467    2.7292 H   0  0  0  0  0  0  0  0  0  0  0  0
   -0.0717    1.4242    2.7338 H   0  0  0  0  0  0  0  0  0  0  0  0
    2.5054   -0.6294    1.9379 H   0  0  0  0  0  0  0  0  0  0  0  0
    1.1011   -2.8035    3.0865 H   0  0  0  0  0  0  0  0  0  0  0  0
   -0.2719   -2.8617    1.8886 H   0  0  0  0  0  0  0  0  0  0  0  0
    0.8975   -4.1776    1.9332 H   0  0  0  0  0  0  0  0  0  0  0  0
    2.9437   -4.0243    0.7969 H   0  0  0  0  0  0  0  0  0  0  0  0
    3.6713   -2.4585    0.3839 H   0  0  0  0  0  0  0  0  0  0  0  0
    3.4203   -2.8754    2.1125 H   0  0  0  0  0  0  0  0  0  0  0  0
  1  2  1  0
  2  3  1  0
  3  4  1  0
  4  5  2  0
  4  6  1  0
  6  7  1  0
  7  8  1  0
  8  9  1  0
  8 10  1  0
 10 11  1  0
 11 12  1  0
 12 13  1  0
 13 14  1  0
 13 15  1  1
 15 16  1  0
 16 17  2  0
 16 18  1  0
 18 19  1  0
 11 20  1  0
 20 21  1  0
 21 22  1  0
 22 23  1  0
 22 24  1  0
 24 25  1  0
 25 26  1  0
 26 27  1  0
 27 28  1  0
 28 29  1  0
 29 30  1  0
 30 31  2  0
 28 32  1  0
 32 33  1  0
 33 34  1  0
 33 35  1  0
 35 36  1  0
 35 37  1  0
 37 38  2  0
 38 39  1  0
 39 40  2  0
 40 41  1  0
 41 42  1  0
 42 43  1  0
 42 44  1  0
 44 45  1  0
 45 46  2  0
 45 47  1  0
 47 48  1  0
 48 49  1  0
 48 50  1  0
 50 51  1  0
 51 52  1  0
 25 53  1  0
 53 54  1  0
 53 55  1  0
 55 56  1  0
 56 57  1  0
 56 58  1  0
 13  7  1  0
 55 21  1  0
 50 27  1  0
  1 59  1  0
  1 60  1  0
  1 61  1  0
  2 62  1  0
  2 63  1  0
  3 64  1  0
  3 65  1  0
  7 66  1  6
  8 67  1  1
  9 68  1  0
  9 69  1  0
  9 70  1  0
 11 71  1  6
 12 72  1  0
 12 73  1  0
 14 74  1  0
 14 75  1  0
 14 76  1  0
 18 77  1  0
 18 78  1  0
 19 79  1  0
 19 80  1  0
 19 81  1  0
 21 82  1  6
 22 83  1  6
 23 84  1  0
 23 85  1  0
 23 86  1  0
 25 87  1  6
 27 88  1  6
 28 89  1  6
 29 90  1  0
 29 91  1  0
 30 92  1  0
 32 93  1  0
 32 94  1  0
 33 95  1  1
 34 96  1  0
 34 97  1  0
 34 98  1  0
 35 99  1  6
 36100  1  0
 37101  1  0
 38102  1  0
 39103  1  0
 40104  1  0
 41105  1  0
 41106  1  0
 42107  1  6
 43108  1  0
 43109  1  0
 43110  1  0
 47111  1  0
 47112  1  0
 48113  1  1
 49114  1  0
 50115  1  1
 52116  1  0
 52117  1  0
 52118  1  0
 53119  1  1
 54120  1  0
 55121  1  1
 57122  1  0
 57123  1  0
 57124  1  0
 58125  1  0
 58126  1  0
 58127  1  0
M  END
$$$$
