
     RDKit          3D

 60 65  0  0  0  0  0  0  0  0999 V2000
    1.2374    0.5390   -0.6282 C   0  0  2  0  0  0  0  0  0  0  0  0
    2.0243    1.1598   -1.7816 C   0  0  0  0  0  0  0  0  0  0  0  0
    3.4729    0.6915   -1.5936 C   0  0  0  0  0  0  0  0  0  0  0  0
    3.4929   -0.2489   -0.3601 C   0  0  2  0  0  0  0  0  0  0  0  0
    4.1054    0.5015    0.8667 C   0  0  0  0  0  0  0  0  0  0  0  0
    5.6027    0.1761    0.8231 C   0  0  0  0  0  0  0  0  0  0  0  0
    5.6152   -1.0647    0.0216 C   0  0  0  0  0  0  0  0  0  0  0  0
    6.6160   -1.8171   -0.1048 O   0  0  0  0  0  0  0  0  0  0  0  0
    4.4072   -1.3128   -0.5939 O   0  0  0  0  0  0  0  0  0  0  0  0
    2.0092   -0.7344   -0.2459 C   0  0  2  0  0  0  0  0  0  0  0  0
    1.7852   -1.9073   -1.2568 C   0  0  0  0  0  0  0  0  0  0  0  0
    1.4995   -1.1939    1.1427 C   0  0  0  0  0  0  0  0  0  0  0  0
   -0.0380   -1.3568    1.1723 C   0  0  1  0  0  0  0  0  0  0  0  0
   -0.6224   -0.1121    1.5147 O   0  0  0  0  0  0  0  0  0  0  0  0
   -0.9223   -0.5833    0.2223 C   0  0  1  0  0  0  0  0  0  0  0  0
   -0.2595    0.2595   -0.9045 C   0  0  1  0  0  0  0  0  0  0  0  0
   -1.0908    1.5314   -1.1841 C   0  0  1  0  0  0  0  0  0  0  0  0
   -2.5323    1.1421   -1.5609 C   0  0  0  0  0  0  0  0  0  0  0  0
   -3.1933    0.2431   -0.5295 C   0  0  0  0  0  0  0  0  0  0  0  0
   -4.5008    0.4350   -0.2720 C   0  0  0  0  0  0  0  0  0  0  0  0
   -5.2559   -0.4284    0.6460 C   0  0  0  0  0  0  0  0  0  0  0  0
   -6.4761   -0.1959    0.8543 O   0  0  0  0  0  0  0  0  0  0  0  0
   -4.6090   -1.6108    1.2919 C   0  0  0  0  0  0  0  0  0  0  0  0
   -3.0933   -1.4130    1.3945 C   0  0  0  0  0  0  0  0  0  0  0  0
   -2.4347   -0.9662    0.0447 C   0  0  2  0  0  0  0  0  0  0  0  0
   -2.5111   -2.1273   -0.9706 C   0  0  0  0  0  0  0  0  0  0  0  0
   -1.0622    2.5265   -0.0468 C   0  0  0  0  0  0  0  0  0  0  0  0
   -0.2417    3.4843   -0.0822 O   0  0  0  0  0  0  0  0  0  0  0  0
   -1.9189    2.3729    1.0484 O   0  0  0  0  0  0  0  0  0  0  0  0
   -1.9014    3.2503    2.1665 C   0  0  0  0  0  0  0  0  0  0  0  0
    1.3068    1.2518    0.2267 H   0  0  0  0  0  0  0  0  0  0  0  0
    1.6359    0.8082   -2.7627 H   0  0  0  0  0  0  0  0  0  0  0  0
    1.9587    2.2692   -1.7480 H   0  0  0  0  0  0  0  0  0  0  0  0
    3.7960    0.1370   -2.5026 H   0  0  0  0  0  0  0  0  0  0  0  0
    4.1566    1.5618   -1.4827 H   0  0  0  0  0  0  0  0  0  0  0  0
    3.9198    1.5978    0.8485 H   0  0  0  0  0  0  0  0  0  0  0  0
    3.7418    0.1056    1.8306 H   0  0  0  0  0  0  0  0  0  0  0  0
    6.0210    0.0068    1.8389 H   0  0  0  0  0  0  0  0  0  0  0  0
    6.1645    0.9734    0.2912 H   0  0  0  0  0  0  0  0  0  0  0  0
    2.0269   -1.6070   -2.2973 H   0  0  0  0  0  0  0  0  0  0  0  0
    0.7427   -2.2850   -1.2464 H   0  0  0  0  0  0  0  0  0  0  0  0
    2.4265   -2.7743   -0.9913 H   0  0  0  0  0  0  0  0  0  0  0  0
    1.9772   -2.1587    1.4182 H   0  0  0  0  0  0  0  0  0  0  0  0
    1.7451   -0.4671    1.9400 H   0  0  0  0  0  0  0  0  0  0  0  0
   -0.4532   -2.1556    1.8163 H   0  0  0  0  0  0  0  0  0  0  0  0
   -0.3065   -0.3407   -1.8373 H   0  0  0  0  0  0  0  0  0  0  0  0
   -0.6571    2.0336   -2.0779 H   0  0  0  0  0  0  0  0  0  0  0  0
   -2.5215    0.6026   -2.5328 H   0  0  0  0  0  0  0  0  0  0  0  0
   -3.1183    2.0749   -1.7222 H   0  0  0  0  0  0  0  0  0  0  0  0
   -5.0325    1.2554   -0.7399 H   0  0  0  0  0  0  0  0  0  0  0  0
   -4.8445   -2.5242    0.7070 H   0  0  0  0  0  0  0  0  0  0  0  0
   -5.0253   -1.7494    2.3134 H   0  0  0  0  0  0  0  0  0  0  0  0
   -2.6568   -2.3689    1.7516 H   0  0  0  0  0  0  0  0  0  0  0  0
   -2.9134   -0.6429    2.1766 H   0  0  0  0  0  0  0  0  0  0  0  0
   -3.5630   -2.3916   -1.2044 H   0  0  0  0  0  0  0  0  0  0  0  0
   -1.9996   -3.0283   -0.5691 H   0  0  0  0  0  0  0  0  0  0  0  0
   -2.0270   -1.8564   -1.9314 H   0  0  0  0  0  0  0  0  0  0  0  0
   -0.9030    3.2253    2.6525 H   0  0  0  0  0  0  0  0  0  0  0  0
   -2.6663    2.9206    2.8990 H   0  0  0  0  0  0  0  0  0  0  0  0
   -2.1360    4.2858    1.8410 H   0  0  0  0  0  0  0  0  0  0  0  0
  1  2  1  0
  2  3  1  0
  3  4  1  0
  4  5  1  0
  5  6  1  0
  6  7  1  0
  7  8  2  0
  7  9  1  0
  4 10  1  0
 10 11  1  6
 10 12  1  0
 12 13  1  0
 13 14  1  0
 15 14  1  1
 15 16  1  0
 16 17  1  0
 17 18  1  0
 18 19  1  0
 19 20  2  0
 20 21  1  0
 21 22  2  0
 21 23  1  0
 23 24  1  0
 24 25  1  0
 25 26  1  6
 17 27  1  0
 27 28  2  0
 27 29  1  0
 29 30  1  0
 10  1  1  0
 15 13  1  0
 25 15  1  0
 16  1  1  0
 25 19  1  0
  4  9  1  6
  1 31  1  1
  2 32  1  0
  2 33  1  0
  3 34  1  0
  3 35  1  0
  5 36  1  0
  5 37  1  0
  6 38  1  0
  6 39  1  0
 11 40  1  0
 11 41  1  0
 11 42  1  0
 12 43  1  0
 12 44  1  0
 13 45  1  1
 16 46  1  6
 17 47  1  6
 18 48  1  0
 18 49  1  0
 20 50  1  0
 23 51  1  0
 23 52  1  0
 24 53  1  0
 24 54  1  0
 26 55  1  0
 26 56  1  0
 26 57  1  0
 30 58  1  0
 30 59  1  0
 30 60  1  0
M  END
$$$$
