
     RDKit          3D

 48 51  0  0  0  0  0  0  0  0999 V2000
   -2.1026   -0.5291    0.3448 C   0  0  2  0  0  0  0  0  0  0  0  0
   -3.3623   -1.1261   -0.2691 C   0  0  0  0  0  0  0  0  0  0  0  0
   -4.5025   -0.2775    0.3228 C   0  0  0  0  0  0  0  0  0  0  0  0
   -3.8362    0.9015    1.0682 C   0  0  2  0  0  0  0  0  0  0  0  0
   -4.5468    2.0992    0.8844 O   0  0  0  0  0  0  0  0  0  0  0  0
   -2.4119    0.9675    0.4828 C   0  0  2  0  0  0  0  0  0  0  0  0
   -2.4378    1.7438   -0.8745 C   0  0  0  0  0  0  0  0  0  0  0  0
   -1.3540    1.5852    1.4216 C   0  0  0  0  0  0  0  0  0  0  0  0
    0.0848    1.3340    0.9005 C   0  0  0  0  0  0  0  0  0  0  0  0
    0.3732   -0.1661    0.5762 C   0  0  2  0  0  0  0  0  0  0  0  0
    1.7561   -0.4266   -0.0277 C   0  0  0  0  0  0  0  0  0  0  0  0
    1.9696   -1.5605   -0.8572 C   0  0  0  0  0  0  0  0  0  0  0  0
    0.8388   -2.4567   -1.3157 C   0  0  0  0  0  0  0  0  0  0  0  0
   -0.4526   -2.2733   -0.5149 C   0  0  0  0  0  0  0  0  0  0  0  0
   -0.7394   -0.7790   -0.3266 C   0  0  1  0  0  0  0  0  0  0  0  0
    3.2543   -1.8311   -1.3495 C   0  0  0  0  0  0  0  0  0  0  0  0
    4.3416   -1.0281   -0.9971 C   0  0  0  0  0  0  0  0  0  0  0  0
    5.6136   -1.3109   -1.4929 O   0  0  0  0  0  0  0  0  0  0  0  0
    4.1612    0.0611   -0.1414 C   0  0  0  0  0  0  0  0  0  0  0  0
    5.2843    0.8315    0.2011 O   0  0  0  0  0  0  0  0  0  0  0  0
    5.2551    1.9696    1.0566 C   0  0  0  0  0  0  0  0  0  0  0  0
    2.8743    0.3485    0.3503 C   0  0  0  0  0  0  0  0  0  0  0  0
   -2.0348   -0.9749    1.3688 H   0  0  0  0  0  0  0  0  0  0  0  0
   -3.3397   -1.0378   -1.3772 H   0  0  0  0  0  0  0  0  0  0  0  0
   -3.4764   -2.1964    0.0098 H   0  0  0  0  0  0  0  0  0  0  0  0
   -5.1610    0.0895   -0.4950 H   0  0  0  0  0  0  0  0  0  0  0  0
   -5.1136   -0.8798    1.0297 H   0  0  0  0  0  0  0  0  0  0  0  0
   -3.7831    0.6609    2.1571 H   0  0  0  0  0  0  0  0  0  0  0  0
   -5.3891    2.0083    1.4017 H   0  0  0  0  0  0  0  0  0  0  0  0
   -3.1909    1.3273   -1.5746 H   0  0  0  0  0  0  0  0  0  0  0  0
   -2.6966    2.8096   -0.6989 H   0  0  0  0  0  0  0  0  0  0  0  0
   -1.4625    1.7440   -1.3955 H   0  0  0  0  0  0  0  0  0  0  0  0
   -1.5258    2.6789    1.5230 H   0  0  0  0  0  0  0  0  0  0  0  0
   -1.4436    1.1435    2.4389 H   0  0  0  0  0  0  0  0  0  0  0  0
    0.7638    1.6811    1.7062 H   0  0  0  0  0  0  0  0  0  0  0  0
    0.2881    1.9611    0.0074 H   0  0  0  0  0  0  0  0  0  0  0  0
    0.3603   -0.7031    1.5519 H   0  0  0  0  0  0  0  0  0  0  0  0
    1.1505   -3.5217   -1.2442 H   0  0  0  0  0  0  0  0  0  0  0  0
    0.6326   -2.2360   -2.3858 H   0  0  0  0  0  0  0  0  0  0  0  0
   -0.3594   -2.7782    0.4723 H   0  0  0  0  0  0  0  0  0  0  0  0
   -1.2810   -2.7608   -1.0721 H   0  0  0  0  0  0  0  0  0  0  0  0
   -0.7211   -0.3090   -1.3324 H   0  0  0  0  0  0  0  0  0  0  0  0
    3.4112   -2.6744   -2.0117 H   0  0  0  0  0  0  0  0  0  0  0  0
    5.7795   -2.0940   -2.1143 H   0  0  0  0  0  0  0  0  0  0  0  0
    4.5908    2.7510    0.6306 H   0  0  0  0  0  0  0  0  0  0  0  0
    6.2803    2.3841    1.1429 H   0  0  0  0  0  0  0  0  0  0  0  0
    4.9042    1.6777    2.0689 H   0  0  0  0  0  0  0  0  0  0  0  0
    2.7567    1.1724    1.0328 H   0  0  0  0  0  0  0  0  0  0  0  0
  1  2  1  0
  2  3  1  0
  3  4  1  0
  4  5  1  0
  4  6  1  0
  6  7  1  6
  6  8  1  0
  8  9  1  0
  9 10  1  0
 10 11  1  0
 11 12  2  0
 12 13  1  0
 13 14  1  0
 14 15  1  0
 12 16  1  0
 16 17  2  0
 17 18  1  0
 17 19  1  0
 19 20  1  0
 20 21  1  0
 19 22  2  0
  6  1  1  0
 15 10  1  0
 15  1  1  0
 22 11  1  0
  1 23  1  1
  2 24  1  0
  2 25  1  0
  3 26  1  0
  3 27  1  0
  4 28  1  1
  5 29  1  0
  7 30  1  0
  7 31  1  0
  7 32  1  0
  8 33  1  0
  8 34  1  0
  9 35  1  0
  9 36  1  0
 10 37  1  1
 13 38  1  0
 13 39  1  0
 14 40  1  0
 14 41  1  0
 15 42  1  6
 16 43  1  0
 18 44  1  0
 21 45  1  0
 21 46  1  0
 21 47  1  0
 22 48  1  0
M  END
$$$$
