
     RDKit          3D

 52 55  0  0  0  0  0  0  0  0999 V2000
    7.0899    1.9263    1.5943 O   0  0  0  0  0  0  0  0  0  0  0  0
    6.8892    0.8452    0.7251 C   0  0  0  0  0  0  0  0  0  0  0  0
    5.6945    0.0086    1.1858 C   0  0  0  0  0  0  0  0  0  0  0  0
    5.5164   -1.1051    0.3294 O   0  0  0  0  0  0  0  0  0  0  0  0
    4.5769   -0.8255   -0.6924 C   0  0  0  0  0  0  0  0  0  0  0  0
    3.1714   -1.2471   -0.2524 C   0  0  0  0  0  0  0  0  0  0  0  0
    2.2094   -1.0634   -1.3627 N   0  0  0  0  0  0  0  0  0  0  0  0
    1.1355   -2.0773   -1.3680 C   0  0  0  0  0  0  0  0  0  0  0  0
    0.1345   -1.8600   -0.2292 C   0  0  0  0  0  0  0  0  0  0  0  0
   -0.3710   -0.4851   -0.2703 N   0  0  0  0  0  0  0  0  0  0  0  0
    0.6131    0.6001   -0.3501 C   0  0  0  0  0  0  0  0  0  0  0  0
    1.6557    0.3077   -1.4421 C   0  0  0  0  0  0  0  0  0  0  0  0
   -1.7244   -0.1976    0.1361 C   0  0  0  0  0  0  0  0  0  0  0  0
   -2.3265   -1.0193    0.9572 N   0  0  0  0  0  0  0  0  0  0  0  0
   -3.6724   -0.9304    1.4575 C   0  0  0  0  0  0  0  0  0  0  0  0
   -4.4587   -2.0895    1.4817 C   0  0  0  0  0  0  0  0  0  0  0  0
   -5.7832   -2.0367    1.9259 C   0  0  0  0  0  0  0  0  0  0  0  0
   -6.3279   -0.8261    2.3616 C   0  0  0  0  0  0  0  0  0  0  0  0
   -5.5428    0.3296    2.3743 C   0  0  0  0  0  0  0  0  0  0  0  0
   -4.2105    0.2778    1.9471 C   0  0  0  0  0  0  0  0  0  0  0  0
   -3.1940    1.7454    2.0537 S   0  0  0  0  0  0  0  0  0  0  0  0
   -3.1679    1.8755    0.2711 C   0  0  0  0  0  0  0  0  0  0  0  0
   -3.8765    2.9059   -0.3578 C   0  0  0  0  0  0  0  0  0  0  0  0
   -3.8368    3.0363   -1.7480 C   0  0  0  0  0  0  0  0  0  0  0  0
   -3.0926    2.1358   -2.5137 C   0  0  0  0  0  0  0  0  0  0  0  0
   -2.3974    1.0945   -1.8923 C   0  0  0  0  0  0  0  0  0  0  0  0
   -2.4407    0.9446   -0.4959 C   0  0  0  0  0  0  0  0  0  0  0  0
    7.5261    1.5600    2.4076 H   0  0  0  0  0  0  0  0  0  0  0  0
    7.8035    0.2109    0.6761 H   0  0  0  0  0  0  0  0  0  0  0  0
    6.6948    1.2429   -0.2928 H   0  0  0  0  0  0  0  0  0  0  0  0
    4.7861    0.6500    1.2763 H   0  0  0  0  0  0  0  0  0  0  0  0
    5.9083   -0.3777    2.2049 H   0  0  0  0  0  0  0  0  0  0  0  0
    4.5963    0.2391   -1.0196 H   0  0  0  0  0  0  0  0  0  0  0  0
    4.8564   -1.4273   -1.5832 H   0  0  0  0  0  0  0  0  0  0  0  0
    3.2301   -2.3174    0.0477 H   0  0  0  0  0  0  0  0  0  0  0  0
    2.8693   -0.6791    0.6513 H   0  0  0  0  0  0  0  0  0  0  0  0
    1.5636   -3.1015   -1.3039 H   0  0  0  0  0  0  0  0  0  0  0  0
    0.5931   -2.0252   -2.3378 H   0  0  0  0  0  0  0  0  0  0  0  0
   -0.6976   -2.5871   -0.3546 H   0  0  0  0  0  0  0  0  0  0  0  0
    0.6194   -2.0493    0.7525 H   0  0  0  0  0  0  0  0  0  0  0  0
    1.1041    0.7218    0.6375 H   0  0  0  0  0  0  0  0  0  0  0  0
    0.1239    1.5683   -0.5880 H   0  0  0  0  0  0  0  0  0  0  0  0
    1.1743    0.4408   -2.4358 H   0  0  0  0  0  0  0  0  0  0  0  0
    2.4673    1.0633   -1.3837 H   0  0  0  0  0  0  0  0  0  0  0  0
   -4.0498   -3.0296    1.1327 H   0  0  0  0  0  0  0  0  0  0  0  0
   -6.3893   -2.9334    1.9269 H   0  0  0  0  0  0  0  0  0  0  0  0
   -7.3549   -0.7861    2.7007 H   0  0  0  0  0  0  0  0  0  0  0  0
   -5.9643    1.2593    2.7349 H   0  0  0  0  0  0  0  0  0  0  0  0
   -4.4474    3.6132    0.2304 H   0  0  0  0  0  0  0  0  0  0  0  0
   -4.3792    3.8383   -2.2318 H   0  0  0  0  0  0  0  0  0  0  0  0
   -3.0599    2.2403   -3.5904 H   0  0  0  0  0  0  0  0  0  0  0  0
   -1.8376    0.3951   -2.5013 H   0  0  0  0  0  0  0  0  0  0  0  0
  1  2  1  0
  2  3  1  0
  3  4  1  0
  4  5  1  0
  5  6  1  0
  6  7  1  0
  7  8  1  0
  8  9  1  0
  9 10  1  0
 10 11  1  0
 11 12  1  0
 10 13  1  0
 13 14  2  0
 14 15  1  0
 15 16  2  0
 16 17  1  0
 17 18  2  0
 18 19  1  0
 19 20  2  0
 20 21  1  0
 21 22  1  0
 22 23  2  0
 23 24  1  0
 24 25  2  0
 25 26  1  0
 26 27  2  0
 12  7  1  0
 27 13  1  0
 20 15  1  0
 27 22  1  0
  1 28  1  0
  2 29  1  0
  2 30  1  0
  3 31  1  0
  3 32  1  0
  5 33  1  0
  5 34  1  0
  6 35  1  0
  6 36  1  0
  8 37  1  0
  8 38  1  0
  9 39  1  0
  9 40  1  0
 11 41  1  0
 11 42  1  0
 12 43  1  0
 12 44  1  0
 16 45  1  0
 17 46  1  0
 18 47  1  0
 19 48  1  0
 23 49  1  0
 24 50  1  0
 25 51  1  0
 26 52  1  0
M  END
$$$$
