
     RDKit          3D

 43 45  0  0  0  0  0  0  0  0999 V2000
    1.9489   -1.5053   -1.2758 N   0  0  0  0  0  0  0  0  0  0  0  0
    1.4681   -2.8734   -1.4668 C   0  0  0  0  0  0  0  0  0  0  0  0
    1.4311   -3.6315   -0.1408 C   0  0  0  0  0  0  0  0  0  0  0  0
    2.7161   -3.6838    0.4139 O   0  0  0  0  0  0  0  0  0  0  0  0
    1.1379   -0.4718   -0.7036 C   0  0  0  0  0  0  0  0  0  0  0  0
   -0.1369   -0.7474   -0.2739 N   0  0  0  0  0  0  0  0  0  0  0  0
   -0.9437    0.2165    0.2637 C   0  0  0  0  0  0  0  0  0  0  0  0
   -2.2621   -0.0945    0.7428 N   0  0  0  0  0  0  0  0  0  0  0  0
   -2.9162   -1.3548    0.5174 C   0  0  0  0  0  0  0  0  0  0  0  0
   -3.7382   -1.8932    1.5196 C   0  0  0  0  0  0  0  0  0  0  0  0
   -4.3939   -3.1133    1.3186 C   0  0  0  0  0  0  0  0  0  0  0  0
   -5.4044   -3.7855    2.5851 Cl  0  0  0  0  0  0  0  0  0  0  0  0
   -4.2441   -3.7959    0.1075 C   0  0  0  0  0  0  0  0  0  0  0  0
   -3.4480   -3.2554   -0.9053 C   0  0  0  0  0  0  0  0  0  0  0  0
   -2.7923   -2.0366   -0.7075 C   0  0  0  0  0  0  0  0  0  0  0  0
   -0.4149    1.4975    0.3760 C   0  0  0  0  0  0  0  0  0  0  0  0
   -0.9789    2.6145    0.8729 N   0  0  0  0  0  0  0  0  0  0  0  0
    0.0057    3.5424    0.7191 C   0  0  0  0  0  0  0  0  0  0  0  0
    1.1367    3.0414    0.1535 N   0  0  0  0  0  0  0  0  0  0  0  0
    2.3871    3.7442   -0.1544 C   0  0  0  0  0  0  0  0  0  0  0  0
    3.0249    4.2822    1.1292 C   0  0  0  0  0  0  0  0  0  0  0  0
    2.1312    4.8713   -1.1584 C   0  0  0  0  0  0  0  0  0  0  0  0
    0.8433    1.7511   -0.0515 C   0  0  0  0  0  0  0  0  0  0  0  0
    1.6385    0.7964   -0.5921 N   0  0  0  0  0  0  0  0  0  0  0  0
    2.8965   -1.2549   -1.6385 H   0  0  0  0  0  0  0  0  0  0  0  0
    2.1471   -3.4070   -2.1670 H   0  0  0  0  0  0  0  0  0  0  0  0
    0.4550   -2.8583   -1.9243 H   0  0  0  0  0  0  0  0  0  0  0  0
    0.7321   -3.1323    0.5657 H   0  0  0  0  0  0  0  0  0  0  0  0
    1.0626   -4.6645   -0.3284 H   0  0  0  0  0  0  0  0  0  0  0  0
    2.6271   -4.1831    1.2669 H   0  0  0  0  0  0  0  0  0  0  0  0
   -2.7261    0.5887    1.3839 H   0  0  0  0  0  0  0  0  0  0  0  0
   -3.8574   -1.3696    2.4601 H   0  0  0  0  0  0  0  0  0  0  0  0
   -4.7502   -4.7393   -0.0530 H   0  0  0  0  0  0  0  0  0  0  0  0
   -3.3457   -3.7769   -1.8482 H   0  0  0  0  0  0  0  0  0  0  0  0
   -2.2107   -1.6191   -1.5184 H   0  0  0  0  0  0  0  0  0  0  0  0
   -0.1068    4.5756    1.0206 H   0  0  0  0  0  0  0  0  0  0  0  0
    3.1067    3.0338   -0.6187 H   0  0  0  0  0  0  0  0  0  0  0  0
    3.1970    3.4476    1.8417 H   0  0  0  0  0  0  0  0  0  0  0  0
    2.3659    5.0351    1.6119 H   0  0  0  0  0  0  0  0  0  0  0  0
    4.0034    4.7559    0.9006 H   0  0  0  0  0  0  0  0  0  0  0  0
    3.0897    5.3570   -1.4403 H   0  0  0  0  0  0  0  0  0  0  0  0
    1.6641    4.4573   -2.0772 H   0  0  0  0  0  0  0  0  0  0  0  0
    1.4538    5.6386   -0.7266 H   0  0  0  0  0  0  0  0  0  0  0  0
  1  2  1  0
  2  3  1  0
  3  4  1  0
  1  5  1  0
  5  6  2  0
  6  7  1  0
  7  8  1  0
  8  9  1  0
  9 10  2  0
 10 11  1  0
 11 12  1  0
 11 13  2  0
 13 14  1  0
 14 15  2  0
  7 16  2  0
 16 17  1  0
 17 18  2  0
 18 19  1  0
 19 20  1  0
 20 21  1  0
 20 22  1  0
 19 23  1  0
 23 24  2  0
 24  5  1  0
 15  9  1  0
 23 16  1  0
  1 25  1  0
  2 26  1  0
  2 27  1  0
  3 28  1  0
  3 29  1  0
  4 30  1  0
  8 31  1  0
 10 32  1  0
 13 33  1  0
 14 34  1  0
 15 35  1  0
 18 36  1  0
 20 37  1  0
 21 38  1  0
 21 39  1  0
 21 40  1  0
 22 41  1  0
 22 42  1  0
 22 43  1  0
M  END
$$$$
