
     RDKit          3D

 20 20  0  0  0  0  0  0  0  0999 V2000
    3.8200   -1.0995   -0.4215 O   0  0  0  0  0  0  0  0  0  0  0  0
    3.4071    0.1812   -0.0622 C   0  0  0  0  0  0  0  0  0  0  0  0
    4.2666    1.0569    0.2221 O   0  0  0  0  0  0  0  0  0  0  0  0
    1.9782    0.5271   -0.0107 C   0  0  0  0  0  0  0  0  0  0  0  0
    1.0205   -0.3671   -0.2863 C   0  0  0  0  0  0  0  0  0  0  0  0
   -0.4228   -0.0292   -0.2401 C   0  0  0  0  0  0  0  0  0  0  0  0
   -0.8686    1.2325   -0.6839 C   0  0  0  0  0  0  0  0  0  0  0  0
   -2.2303    1.5428   -0.6943 C   0  0  0  0  0  0  0  0  0  0  0  0
   -3.1661    0.5994   -0.2723 C   0  0  0  0  0  0  0  0  0  0  0  0
   -2.7428   -0.6563    0.1654 C   0  0  0  0  0  0  0  0  0  0  0  0
   -1.3805   -0.9799    0.1922 C   0  0  0  0  0  0  0  0  0  0  0  0
   -1.0169   -2.2404    0.6721 O   0  0  0  0  0  0  0  0  0  0  0  0
    4.8040   -1.3375   -0.4572 H   0  0  0  0  0  0  0  0  0  0  0  0
    1.7128    1.5356    0.2823 H   0  0  0  0  0  0  0  0  0  0  0  0
    1.3023   -1.3807   -0.5408 H   0  0  0  0  0  0  0  0  0  0  0  0
   -0.1677    1.9718   -1.0501 H   0  0  0  0  0  0  0  0  0  0  0  0
   -2.5609    2.5134   -1.0410 H   0  0  0  0  0  0  0  0  0  0  0  0
   -4.2212    0.8406   -0.2854 H   0  0  0  0  0  0  0  0  0  0  0  0
   -3.4766   -1.3808    0.4956 H   0  0  0  0  0  0  0  0  0  0  0  0
   -0.0571   -2.5298    0.8054 H   0  0  0  0  0  0  0  0  0  0  0  0
  1  2  1  0
  2  3  2  0
  2  4  1  0
  4  5  2  0
  5  6  1  0
  6  7  2  0
  7  8  1  0
  8  9  2  0
  9 10  1  0
 10 11  2  0
 11 12  1  0
 11  6  1  0
  1 13  1  0
  4 14  1  0
  5 15  1  0
  7 16  1  0
  8 17  1  0
  9 18  1  0
 10 19  1  0
 12 20  1  0
M  END
$$$$
