
     RDKit          3D

 37 40  0  0  0  0  0  0  0  0999 V2000
    2.5372   -1.9983    1.6971 F   0  0  0  0  0  0  0  0  0  0  0  0
    3.0593   -0.8823    1.1304 C   0  0  0  0  0  0  0  0  0  0  0  0
    2.4587    0.3751    1.3307 C   0  0  0  0  0  0  0  0  0  0  0  0
    1.1948    0.5057    2.1445 C   0  0  0  0  0  0  0  0  0  0  0  0
    0.0277    0.0776    1.3560 N   0  0  0  0  0  0  0  0  0  0  0  0
   -0.5520   -1.2249    1.5551 C   0  0  0  0  0  0  0  0  0  0  0  0
   -0.1749   -1.9721    2.4982 O   0  0  0  0  0  0  0  0  0  0  0  0
   -1.5951   -1.6720    0.6408 C   0  0  0  0  0  0  0  0  0  0  0  0
   -2.2169   -2.9046    0.6143 C   0  0  0  0  0  0  0  0  0  0  0  0
   -3.1108   -2.8544   -0.4395 C   0  0  0  0  0  0  0  0  0  0  0  0
   -2.9929   -1.5978   -1.0040 C   0  0  0  0  0  0  0  0  0  0  0  0
   -2.0624   -0.8819   -0.3371 N   0  0  0  0  0  0  0  0  0  0  0  0
   -1.6495    0.5096   -0.5876 C   0  0  2  0  0  0  0  0  0  0  0  0
   -2.8659    1.4749   -0.4510 C   0  0  0  0  0  0  0  0  0  0  0  0
   -3.0115    2.0567   -1.8183 C   0  0  0  0  0  0  0  0  0  0  0  0
   -3.8995    2.8913   -2.1340 O   0  0  0  0  0  0  0  0  0  0  0  0
   -2.0512    1.5809   -2.7385 N   0  0  0  0  0  0  0  0  0  0  0  0
   -1.2421    0.6690   -2.0251 C   0  0  0  0  0  0  0  0  0  0  0  0
   -0.2834    0.0508   -2.5600 O   0  0  0  0  0  0  0  0  0  0  0  0
   -0.5033    0.9440    0.3233 C   0  0  0  0  0  0  0  0  0  0  0  0
   -0.0193    2.1000    0.1703 O   0  0  0  0  0  0  0  0  0  0  0  0
    3.0330    1.5107    0.7331 C   0  0  0  0  0  0  0  0  0  0  0  0
    4.1853    1.3926   -0.0490 C   0  0  0  0  0  0  0  0  0  0  0  0
    4.7753    0.1408   -0.2436 C   0  0  0  0  0  0  0  0  0  0  0  0
    6.3488   -0.0185   -1.3141 Br  0  0  0  0  0  0  0  0  0  0  0  0
    4.2127   -0.9943    0.3470 C   0  0  0  0  0  0  0  0  0  0  0  0
    1.0524    1.5562    2.4807 H   0  0  0  0  0  0  0  0  0  0  0  0
    1.2915   -0.0899    3.0774 H   0  0  0  0  0  0  0  0  0  0  0  0
   -2.0406   -3.7421    1.2763 H   0  0  0  0  0  0  0  0  0  0  0  0
   -3.7753   -3.6454   -0.7597 H   0  0  0  0  0  0  0  0  0  0  0  0
   -3.5605   -1.2297   -1.8491 H   0  0  0  0  0  0  0  0  0  0  0  0
   -2.6871    2.2900    0.2837 H   0  0  0  0  0  0  0  0  0  0  0  0
   -3.7980    0.9390   -0.1703 H   0  0  0  0  0  0  0  0  0  0  0  0
   -1.9617    1.8448   -3.7447 H   0  0  0  0  0  0  0  0  0  0  0  0
    2.5903    2.4890    0.8720 H   0  0  0  0  0  0  0  0  0  0  0  0
    4.6179    2.2742   -0.5042 H   0  0  0  0  0  0  0  0  0  0  0  0
    4.6693   -1.9646    0.1987 H   0  0  0  0  0  0  0  0  0  0  0  0
  1  2  1  0
  2  3  2  0
  3  4  1  0
  4  5  1  0
  5  6  1  0
  6  7  2  0
  6  8  1  0
  8  9  2  0
  9 10  1  0
 10 11  2  0
 11 12  1  0
 12 13  1  0
 13 14  1  1
 14 15  1  0
 15 16  2  0
 15 17  1  0
 17 18  1  0
 18 19  2  0
 13 20  1  0
 20 21  2  0
  3 22  1  0
 22 23  2  0
 23 24  1  0
 24 25  1  0
 24 26  2  0
 26  2  1  0
 20  5  1  0
 12  8  1  0
 18 13  1  0
  4 27  1  0
  4 28  1  0
  9 29  1  0
 10 30  1  0
 11 31  1  0
 14 32  1  0
 14 33  1  0
 17 34  1  0
 22 35  1  0
 23 36  1  0
 26 37  1  0
M  END
$$$$
