
     RDKit          3D

 35 37  0  0  0  0  0  0  0  0999 V2000
   -1.8977   -2.1686   -1.3886 C   0  0  0  0  0  0  0  0  0  0  0  0
   -1.5345   -1.0090   -0.4530 C   0  0  1  0  0  0  0  0  0  0  0  0
   -0.8373   -1.5320    0.6816 O   0  0  0  0  0  0  0  0  0  0  0  0
    0.4518   -1.0227    0.7322 C   0  0  0  0  0  0  0  0  0  0  0  0
    1.2410   -1.2374    1.6891 O   0  0  0  0  0  0  0  0  0  0  0  0
    0.7534   -0.1824   -0.3684 N   0  0  0  0  0  0  0  0  0  0  0  0
    1.7087    0.8494   -0.3589 N   0  0  0  0  0  0  0  0  0  0  0  0
    3.0853    0.6205   -0.0196 C   0  0  0  0  0  0  0  0  0  0  0  0
    3.8947    1.7032    0.3586 C   0  0  0  0  0  0  0  0  0  0  0  0
    5.2419    1.5019    0.6750 C   0  0  0  0  0  0  0  0  0  0  0  0
    5.7936    0.2200    0.6050 C   0  0  0  0  0  0  0  0  0  0  0  0
    5.0003   -0.8613    0.2128 C   0  0  0  0  0  0  0  0  0  0  0  0
    3.6526   -0.6640   -0.1041 C   0  0  0  0  0  0  0  0  0  0  0  0
   -0.4786   -0.1221   -1.0722 C   0  0  0  0  0  0  0  0  0  0  0  0
   -0.6411    0.5836   -2.1036 O   0  0  0  0  0  0  0  0  0  0  0  0
   -2.7734   -0.2093   -0.0441 C   0  0  0  0  0  0  0  0  0  0  0  0
   -3.5172    0.4683   -1.0345 C   0  0  0  0  0  0  0  0  0  0  0  0
   -4.6576    1.2022   -0.7002 C   0  0  0  0  0  0  0  0  0  0  0  0
   -5.0836    1.2686    0.6255 C   0  0  0  0  0  0  0  0  0  0  0  0
   -6.1915    1.9807    0.9474 F   0  0  0  0  0  0  0  0  0  0  0  0
   -4.3724    0.5960    1.6192 C   0  0  0  0  0  0  0  0  0  0  0  0
   -3.2287   -0.1427    1.2966 C   0  0  0  0  0  0  0  0  0  0  0  0
   -2.5878   -0.7890    2.3025 F   0  0  0  0  0  0  0  0  0  0  0  0
   -2.6441   -2.8305   -0.8997 H   0  0  0  0  0  0  0  0  0  0  0  0
   -0.9940   -2.7725   -1.6208 H   0  0  0  0  0  0  0  0  0  0  0  0
   -2.3220   -1.7946   -2.3442 H   0  0  0  0  0  0  0  0  0  0  0  0
    1.4157    1.8090   -0.6520 H   0  0  0  0  0  0  0  0  0  0  0  0
    3.4787    2.7013    0.4152 H   0  0  0  0  0  0  0  0  0  0  0  0
    5.8584    2.3401    0.9729 H   0  0  0  0  0  0  0  0  0  0  0  0
    6.8368    0.0657    0.8487 H   0  0  0  0  0  0  0  0  0  0  0  0
    5.4312   -1.8521    0.1484 H   0  0  0  0  0  0  0  0  0  0  0  0
    3.0601   -1.5098   -0.4276 H   0  0  0  0  0  0  0  0  0  0  0  0
   -3.2190    0.4282   -2.0737 H   0  0  0  0  0  0  0  0  0  0  0  0
   -5.2129    1.7177   -1.4733 H   0  0  0  0  0  0  0  0  0  0  0  0
   -4.7108    0.6436    2.6465 H   0  0  0  0  0  0  0  0  0  0  0  0
  2  1  1  6
  2  3  1  0
  3  4  1  0
  4  5  2  0
  4  6  1  0
  6  7  1  0
  7  8  1  0
  8  9  2  0
  9 10  1  0
 10 11  2  0
 11 12  1  0
 12 13  2  0
  6 14  1  0
 14 15  2  0
  2 16  1  0
 16 17  2  0
 17 18  1  0
 18 19  2  0
 19 20  1  0
 19 21  1  0
 21 22  2  0
 22 23  1  0
 14  2  1  0
 22 16  1  0
 13  8  1  0
  1 24  1  0
  1 25  1  0
  1 26  1  0
  7 27  1  0
  9 28  1  0
 10 29  1  0
 11 30  1  0
 12 31  1  0
 13 32  1  0
 17 33  1  0
 18 34  1  0
 21 35  1  0
M  END
$$$$
