
     RDKit          3D

 41 43  0  0  0  0  0  0  0  0999 V2000
    1.4610    1.8100   -0.4893 N   0  0  0  0  0  0  0  0  0  0  0  0
    0.8451    0.5821   -0.0958 C   0  0  0  0  0  0  0  0  0  0  0  0
   -0.4782    0.4679    0.1267 N   0  0  0  0  0  0  0  0  0  0  0  0
   -0.6011   -0.8586    0.3586 C   0  0  0  0  0  0  0  0  0  0  0  0
   -1.8357   -1.5024    0.6997 N   0  0  0  0  0  0  0  0  0  0  0  0
   -3.1228   -0.8674    0.6217 C   0  0  0  0  0  0  0  0  0  0  0  0
   -4.1185   -1.2152    1.5466 C   0  0  0  0  0  0  0  0  0  0  0  0
   -5.3851   -0.6274    1.4796 C   0  0  0  0  0  0  0  0  0  0  0  0
   -5.6756    0.3090    0.4794 C   0  0  0  0  0  0  0  0  0  0  0  0
   -4.6958    0.6361   -0.4667 C   0  0  0  0  0  0  0  0  0  0  0  0
   -3.4284    0.0495   -0.4001 C   0  0  0  0  0  0  0  0  0  0  0  0
   -7.2770    1.0349    0.3833 S   0  0  0  0  0  6  0  0  0  0  0  0
   -8.2979    0.0597   -0.6137 N   0  0  0  0  0  0  0  0  0  0  0  0
   -7.1753    2.4155   -0.2023 O   0  0  0  0  0  0  0  0  0  0  0  0
   -7.8719    1.1389    1.7597 O   0  0  0  0  0  0  0  0  0  0  0  0
    0.5723   -1.5185    0.2959 N   0  0  0  0  0  0  0  0  0  0  0  0
    1.4808   -0.6035    0.0069 N   0  0  0  0  0  0  0  0  0  0  0  0
    2.8835   -0.8796   -0.1287 C   0  0  0  0  0  0  0  0  0  0  0  0
    3.3660   -2.3989   -0.5304 S   0  0  0  0  0  0  0  0  0  0  0  0
    3.8464    0.0719    0.3519 N   0  0  0  0  0  0  0  0  0  0  0  0
    5.2109    0.1297   -0.0960 C   0  0  0  0  0  0  0  0  0  0  0  0
    5.5362   -0.0011   -1.4609 C   0  0  0  0  0  0  0  0  0  0  0  0
    4.5644   -0.1625   -2.3939 F   0  0  0  0  0  0  0  0  0  0  0  0
    6.8698    0.0779   -1.8752 C   0  0  0  0  0  0  0  0  0  0  0  0
    7.8837    0.3008   -0.9406 C   0  0  0  0  0  0  0  0  0  0  0  0
    7.5665    0.4558    0.4107 C   0  0  0  0  0  0  0  0  0  0  0  0
    6.2354    0.3790    0.8329 C   0  0  0  0  0  0  0  0  0  0  0  0
    5.9448    0.5287    2.1498 F   0  0  0  0  0  0  0  0  0  0  0  0
    2.4434    1.8428   -0.8369 H   0  0  0  0  0  0  0  0  0  0  0  0
    0.8954    2.6869   -0.5174 H   0  0  0  0  0  0  0  0  0  0  0  0
   -1.7792   -2.4598    1.1151 H   0  0  0  0  0  0  0  0  0  0  0  0
   -3.9088   -1.9372    2.3259 H   0  0  0  0  0  0  0  0  0  0  0  0
   -6.1389   -0.9065    2.2048 H   0  0  0  0  0  0  0  0  0  0  0  0
   -4.9155    1.3358   -1.2629 H   0  0  0  0  0  0  0  0  0  0  0  0
   -2.7012    0.2919   -1.1632 H   0  0  0  0  0  0  0  0  0  0  0  0
   -7.8286   -0.0215   -1.5435 H   0  0  0  0  0  0  0  0  0  0  0  0
   -8.3067   -0.8980   -0.1965 H   0  0  0  0  0  0  0  0  0  0  0  0
    3.5513    0.7134    1.1222 H   0  0  0  0  0  0  0  0  0  0  0  0
    7.1175   -0.0232   -2.9241 H   0  0  0  0  0  0  0  0  0  0  0  0
    8.9144    0.3630   -1.2650 H   0  0  0  0  0  0  0  0  0  0  0  0
    8.3535    0.6367    1.1315 H   0  0  0  0  0  0  0  0  0  0  0  0
  1  2  1  0
  2  3  2  0
  3  4  1  0
  4  5  1  0
  5  6  1  0
  6  7  2  0
  7  8  1  0
  8  9  2  0
  9 10  1  0
 10 11  2  0
  9 12  1  0
 12 13  1  0
 12 14  2  0
 12 15  2  0
  4 16  2  0
 16 17  1  0
 17 18  1  0
 18 19  2  0
 18 20  1  0
 20 21  1  0
 21 22  2  0
 22 23  1  0
 22 24  1  0
 24 25  2  0
 25 26  1  0
 26 27  2  0
 27 28  1  0
 17  2  1  0
 27 21  1  0
 11  6  1  0
  1 29  1  0
  1 30  1  0
  5 31  1  0
  7 32  1  0
  8 33  1  0
 10 34  1  0
 11 35  1  0
 13 36  1  0
 13 37  1  0
 20 38  1  0
 24 39  1  0
 25 40  1  0
 26 41  1  0
M  END
$$$$
