
     RDKit          3D

 40 42  0  0  0  0  0  0  0  0999 V2000
    7.3545    1.2574    0.9435 N   0  0  0  0  0  0  0  0  0  0  0  0
    5.8272    0.8790    1.6573 S   0  0  0  0  0  6  0  0  0  0  0  0
    5.5904    1.7884    2.8302 O   0  0  0  0  0  0  0  0  0  0  0  0
    5.8389   -0.5503    2.1220 O   0  0  0  0  0  0  0  0  0  0  0  0
    4.5927    1.1004    0.4930 O   0  0  0  0  0  0  0  0  0  0  0  0
    3.2274    0.8818    0.7244 C   0  0  0  0  0  0  0  0  0  0  0  0
    2.7245    0.4530    1.9671 C   0  0  0  0  0  0  0  0  0  0  0  0
    1.3523    0.2489    2.1403 C   0  0  0  0  0  0  0  0  0  0  0  0
    0.4615    0.4598    1.0762 C   0  0  0  0  0  0  0  0  0  0  0  0
   -1.0198    0.2498    1.2707 C   0  0  0  0  0  0  0  0  0  0  0  0
   -1.5770   -0.6035    0.2095 N   0  0  0  0  0  0  0  0  0  0  0  0
   -1.0491   -1.8964   -0.0086 N   0  0  0  0  0  0  0  0  0  0  0  0
   -0.3507   -2.6626    0.8479 C   0  0  0  0  0  0  0  0  0  0  0  0
    0.0225   -3.8137    0.2565 N   0  0  0  0  0  0  0  0  0  0  0  0
   -0.4334   -3.7816   -0.9894 N   0  0  0  0  0  0  0  0  0  0  0  0
   -1.0824   -2.6120   -1.1462 C   0  0  0  0  0  0  0  0  0  0  0  0
   -2.7534   -0.1792   -0.5094 C   0  0  0  0  0  0  0  0  0  0  0  0
   -2.8290    1.1068   -1.0728 C   0  0  0  0  0  0  0  0  0  0  0  0
   -3.9724    1.5072   -1.7708 C   0  0  0  0  0  0  0  0  0  0  0  0
   -5.0530    0.6286   -1.9126 C   0  0  0  0  0  0  0  0  0  0  0  0
   -4.9862   -0.6526   -1.3526 C   0  0  0  0  0  0  0  0  0  0  0  0
   -3.8433   -1.0539   -0.6546 C   0  0  0  0  0  0  0  0  0  0  0  0
   -6.2297    1.0416   -2.6315 C   0  0  0  0  0  0  0  0  0  0  0  0
   -7.1756    1.3737   -3.2096 N   0  0  0  0  0  0  0  0  0  0  0  0
    0.9638    0.8995   -0.1586 C   0  0  0  0  0  0  0  0  0  0  0  0
    2.3354    1.1033   -0.3309 C   0  0  0  0  0  0  0  0  0  0  0  0
    7.2888    2.2378    0.5889 H   0  0  0  0  0  0  0  0  0  0  0  0
    7.4583    0.6422    0.1057 H   0  0  0  0  0  0  0  0  0  0  0  0
    3.3793    0.2747    2.8073 H   0  0  0  0  0  0  0  0  0  0  0  0
    0.9866   -0.0787    3.1056 H   0  0  0  0  0  0  0  0  0  0  0  0
   -1.5150    1.2437    1.2913 H   0  0  0  0  0  0  0  0  0  0  0  0
   -1.2292   -0.2242    2.2538 H   0  0  0  0  0  0  0  0  0  0  0  0
   -0.1197   -2.4029    1.8720 H   0  0  0  0  0  0  0  0  0  0  0  0
   -1.5487   -2.2912   -2.0685 H   0  0  0  0  0  0  0  0  0  0  0  0
   -2.0014    1.7972   -0.9833 H   0  0  0  0  0  0  0  0  0  0  0  0
   -4.0127    2.5006   -2.2015 H   0  0  0  0  0  0  0  0  0  0  0  0
   -5.8175   -1.3400   -1.4534 H   0  0  0  0  0  0  0  0  0  0  0  0
   -3.8106   -2.0440   -0.2178 H   0  0  0  0  0  0  0  0  0  0  0  0
    0.2975    1.0760   -0.9923 H   0  0  0  0  0  0  0  0  0  0  0  0
    2.7084    1.4356   -1.2914 H   0  0  0  0  0  0  0  0  0  0  0  0
  1  2  1  0
  2  3  2  0
  2  4  2  0
  2  5  1  0
  5  6  1  0
  6  7  2  0
  7  8  1  0
  8  9  2  0
  9 10  1  0
 10 11  1  0
 11 12  1  0
 12 13  1  0
 13 14  2  0
 14 15  1  0
 15 16  2  0
 11 17  1  0
 17 18  2  0
 18 19  1  0
 19 20  2  0
 20 21  1  0
 21 22  2  0
 20 23  1  0
 23 24  3  0
  9 25  1  0
 25 26  2  0
 26  6  1  0
 16 12  1  0
 22 17  1  0
  1 27  1  0
  1 28  1  0
  7 29  1  0
  8 30  1  0
 10 31  1  0
 10 32  1  0
 13 33  1  0
 16 34  1  0
 18 35  1  0
 19 36  1  0
 21 37  1  0
 22 38  1  0
 25 39  1  0
 26 40  1  0
M  END
$$$$
