
     RDKit          3D

 67 70  0  0  0  0  0  0  0  0999 V2000
   -6.7733    1.2424    1.4821 C   0  0  0  0  0  0  0  0  0  0  0  0
   -6.0493    0.5254    0.3255 C   0  0  0  0  0  0  0  0  0  0  0  0
   -5.9981    1.4861   -0.8853 C   0  0  0  0  0  0  0  0  0  0  0  0
   -4.5981    0.1689    0.7825 C   0  0  0  0  0  0  0  0  0  0  0  0
   -3.9389   -0.7811   -0.1826 C   0  0  0  0  0  0  0  0  0  0  0  0
   -4.6455   -1.6190   -1.0015 C   0  0  0  0  0  0  0  0  0  0  0  0
   -3.6927   -2.2671   -1.7690 C   0  0  0  0  0  0  0  0  0  0  0  0
   -2.4673   -1.8287   -1.4051 N   0  0  0  0  0  0  0  0  0  0  0  0
   -2.6197   -0.9385   -0.4320 N   0  0  0  0  0  0  0  0  0  0  0  0
   -1.5171   -0.2497    0.1809 C   0  0  0  0  0  0  0  0  0  0  0  0
   -0.4420    0.1823   -0.6071 C   0  0  0  0  0  0  0  0  0  0  0  0
    0.6554    0.8471   -0.0330 C   0  0  0  0  0  0  0  0  0  0  0  0
    1.7653    1.2369   -0.8616 N   0  0  0  0  0  0  0  0  0  0  0  0
    2.3858    0.3319   -1.8432 C   0  0  1  0  0  0  0  0  0  0  0  0
    3.5228    1.0483   -2.5977 C   0  0  0  0  0  0  0  0  0  0  0  0
    4.7035    1.4356   -1.6788 C   0  0  0  0  0  0  0  0  0  0  0  0
    4.8278    0.5478   -0.4228 C   0  0  1  0  0  0  0  0  0  0  0  0
    4.3889   -0.8916   -0.7299 C   0  0  0  0  0  0  0  0  0  0  0  0
    2.9101   -0.9628   -1.1642 C   0  0  0  0  0  0  0  0  0  0  0  0
    6.1809    0.5668    0.0326 O   0  0  0  0  0  0  0  0  0  0  0  0
    6.5656    0.1836    1.3224 C   0  0  0  0  0  0  0  0  0  0  0  0
    5.7058   -0.1629    2.1779 O   0  0  0  0  0  0  0  0  0  0  0  0
    8.0210    0.1460    1.6742 C   0  0  0  0  0  0  0  0  0  0  0  0
    8.6133   -1.1372    1.3064 N   0  0  0  0  0  0  0  0  0  0  0  0
    0.6766    1.0730    1.3650 C   0  0  0  0  0  0  0  0  0  0  0  0
   -0.3911    0.6096    2.1505 C   0  0  0  0  0  0  0  0  0  0  0  0
   -1.4746   -0.0466    1.5662 C   0  0  0  0  0  0  0  0  0  0  0  0
    1.8184    1.7315    2.0384 C   0  0  0  0  0  0  0  0  0  0  0  0
    2.3753    1.1747    3.2303 N   0  0  0  0  0  0  0  0  0  0  0  0
    2.2942    2.8038    1.5802 O   0  0  0  0  0  0  0  0  0  0  0  0
   -3.9351   -3.2580   -2.8651 C   0  0  0  0  0  0  0  0  0  0  0  0
   -4.6478   -4.3349   -2.3714 F   0  0  0  0  0  0  0  0  0  0  0  0
   -4.6527   -2.6587   -3.8834 F   0  0  0  0  0  0  0  0  0  0  0  0
   -2.7304   -3.7120   -3.3711 F   0  0  0  0  0  0  0  0  0  0  0  0
   -6.1106   -1.6379   -1.0322 C   0  0  0  0  0  0  0  0  0  0  0  0
   -6.7391   -2.3945   -1.8186 O   0  0  0  0  0  0  0  0  0  0  0  0
   -6.8516   -0.7636   -0.0516 C   0  0  0  0  0  0  0  0  0  0  0  0
   -6.8379    0.5833    2.3746 H   0  0  0  0  0  0  0  0  0  0  0  0
   -7.8066    1.5234    1.1838 H   0  0  0  0  0  0  0  0  0  0  0  0
   -6.2283    2.1667    1.7725 H   0  0  0  0  0  0  0  0  0  0  0  0
   -5.4760    1.0206   -1.7476 H   0  0  0  0  0  0  0  0  0  0  0  0
   -7.0247    1.7597   -1.2116 H   0  0  0  0  0  0  0  0  0  0  0  0
   -5.4576    2.4206   -0.6213 H   0  0  0  0  0  0  0  0  0  0  0  0
   -3.9901    1.0943    0.8793 H   0  0  0  0  0  0  0  0  0  0  0  0
   -4.6327   -0.3295    1.7752 H   0  0  0  0  0  0  0  0  0  0  0  0
   -0.4754    0.0173   -1.6756 H   0  0  0  0  0  0  0  0  0  0  0  0
    2.1425    2.2042   -0.7560 H   0  0  0  0  0  0  0  0  0  0  0  0
    1.6199    0.0483   -2.5963 H   0  0  0  0  0  0  0  0  0  0  0  0
    3.8950    0.3701   -3.3974 H   0  0  0  0  0  0  0  0  0  0  0  0
    3.1275    1.9576   -3.1010 H   0  0  0  0  0  0  0  0  0  0  0  0
    5.6422    1.3779   -2.2728 H   0  0  0  0  0  0  0  0  0  0  0  0
    4.5890    2.4930   -1.3548 H   0  0  0  0  0  0  0  0  0  0  0  0
    4.1716    0.9662    0.3723 H   0  0  0  0  0  0  0  0  0  0  0  0
    4.5362   -1.5354    0.1637 H   0  0  0  0  0  0  0  0  0  0  0  0
    5.0328   -1.2985   -1.5410 H   0  0  0  0  0  0  0  0  0  0  0  0
    2.8008   -1.8097   -1.8765 H   0  0  0  0  0  0  0  0  0  0  0  0
    2.2850   -1.2196   -0.2826 H   0  0  0  0  0  0  0  0  0  0  0  0
    8.1512    0.3132    2.7654 H   0  0  0  0  0  0  0  0  0  0  0  0
    8.5511    0.9626    1.1391 H   0  0  0  0  0  0  0  0  0  0  0  0
    8.4812   -1.2873    0.2792 H   0  0  0  0  0  0  0  0  0  0  0  0
    8.1013   -1.9003    1.8068 H   0  0  0  0  0  0  0  0  0  0  0  0
   -0.3882    0.7581    3.2235 H   0  0  0  0  0  0  0  0  0  0  0  0
   -2.2673   -0.4166    2.2015 H   0  0  0  0  0  0  0  0  0  0  0  0
    3.1652    1.6556    3.7153 H   0  0  0  0  0  0  0  0  0  0  0  0
    2.0351    0.2625    3.6073 H   0  0  0  0  0  0  0  0  0  0  0  0
   -7.0376   -1.3686    0.8625 H   0  0  0  0  0  0  0  0  0  0  0  0
   -7.8415   -0.4864   -0.4766 H   0  0  0  0  0  0  0  0  0  0  0  0
  1  2  1  0
  2  3  1  0
  2  4  1  0
  4  5  1  0
  5  6  2  0
  6  7  1  0
  7  8  2  0
  8  9  1  0
  9 10  1  0
 10 11  2  0
 11 12  1  0
 12 13  1  0
 13 14  1  0
 14 15  1  0
 15 16  1  0
 16 17  1  0
 17 18  1  0
 18 19  1  0
 17 20  1  0
 20 21  1  0
 21 22  2  0
 21 23  1  0
 23 24  1  0
 12 25  2  0
 25 26  1  0
 26 27  2  0
 25 28  1  0
 28 29  1  0
 28 30  2  0
  7 31  1  0
 31 32  1  0
 31 33  1  0
 31 34  1  0
  6 35  1  0
 35 36  2  0
 35 37  1  0
 37  2  1  0
  9  5  1  0
 27 10  1  0
 19 14  1  0
  1 38  1  0
  1 39  1  0
  1 40  1  0
  3 41  1  0
  3 42  1  0
  3 43  1  0
  4 44  1  0
  4 45  1  0
 11 46  1  0
 13 47  1  0
 14 48  1  6
 15 49  1  0
 15 50  1  0
 16 51  1  0
 16 52  1  0
 17 53  1  1
 18 54  1  0
 18 55  1  0
 19 56  1  0
 19 57  1  0
 23 58  1  0
 23 59  1  0
 24 60  1  0
 24 61  1  0
 26 62  1  0
 27 63  1  0
 29 64  1  0
 29 65  1  0
 37 66  1  0
 37 67  1  0
M  END
$$$$
