
     RDKit          3D

 66 70  0  0  0  0  0  0  0  0999 V2000
   -7.3411   -3.6349   -2.2060 F   0  0  0  0  0  0  0  0  0  0  0  0
   -6.4144   -2.6648   -2.0108 C   0  0  0  0  0  0  0  0  0  0  0  0
   -5.8053   -2.5215   -0.7619 C   0  0  0  0  0  0  0  0  0  0  0  0
   -4.8483   -1.5233   -0.5588 C   0  0  0  0  0  0  0  0  0  0  0  0
   -4.4969   -0.6470   -1.6056 C   0  0  0  0  0  0  0  0  0  0  0  0
   -5.1068   -0.8121   -2.8624 C   0  0  0  0  0  0  0  0  0  0  0  0
   -6.0635   -1.8122   -3.0604 C   0  0  0  0  0  0  0  0  0  0  0  0
   -3.4319    0.4259   -1.4177 C   0  0  0  0  0  0  0  0  0  0  0  0
   -2.0280   -0.1421   -1.7560 C   0  0  0  0  0  0  0  0  0  0  0  0
   -1.6150   -1.3650   -0.9106 C   0  0  0  0  0  0  0  0  0  0  0  0
   -0.1381   -1.7278   -1.1249 C   0  0  0  0  0  0  0  0  0  0  0  0
    0.7561   -0.7191   -0.5092 N   0  0  0  0  0  0  0  0  0  0  0  0
    2.0788   -0.6517   -1.1872 C   0  0  0  0  0  0  0  0  0  0  0  0
    3.1490   -1.4869   -0.4701 C   0  0  0  0  0  0  0  0  0  0  0  0
    3.3776   -0.9762    0.9777 C   0  0  0  0  0  0  0  0  0  0  0  0
    2.1163   -0.2779    1.5548 C   0  0  0  0  0  0  0  0  0  0  0  0
    0.8397   -0.8936    0.9683 C   0  0  0  0  0  0  0  0  0  0  0  0
    4.5544   -0.0923    1.0555 N   0  0  0  0  0  0  0  0  0  0  0  0
    5.5984   -0.6258    1.9311 C   0  0  0  0  0  0  0  0  0  0  0  0
    5.0932   -1.8997    2.4041 N   0  0  0  0  0  0  0  0  0  0  0  0
    3.8043   -2.1037    1.8594 C   0  0  0  0  0  0  0  0  0  0  0  0
    3.1096   -3.1236    2.1146 O   0  0  0  0  0  0  0  0  0  0  0  0
    4.6466    1.2231    0.4898 C   0  0  0  0  0  0  0  0  0  0  0  0
    5.0119    1.3956   -0.8533 C   0  0  0  0  0  0  0  0  0  0  0  0
    5.1145    2.6814   -1.3935 C   0  0  0  0  0  0  0  0  0  0  0  0
    4.8672    3.7997   -0.5919 C   0  0  0  0  0  0  0  0  0  0  0  0
    4.5239    3.6336    0.7529 C   0  0  0  0  0  0  0  0  0  0  0  0
    4.4207    2.3491    1.2953 C   0  0  0  0  0  0  0  0  0  0  0  0
   -3.5632    1.1549   -0.0759 C   0  0  0  0  0  0  0  0  0  0  0  0
   -4.8346    1.6197    0.3222 C   0  0  0  0  0  0  0  0  0  0  0  0
   -5.0004    2.3202    1.5199 C   0  0  0  0  0  0  0  0  0  0  0  0
   -3.8976    2.5934    2.3294 C   0  0  0  0  0  0  0  0  0  0  0  0
   -4.0594    3.2753    3.4900 F   0  0  0  0  0  0  0  0  0  0  0  0
   -2.6254    2.1788    1.9341 C   0  0  0  0  0  0  0  0  0  0  0  0
   -2.4535    1.4787    0.7363 C   0  0  0  0  0  0  0  0  0  0  0  0
   -6.0712   -3.1865    0.0497 H   0  0  0  0  0  0  0  0  0  0  0  0
   -4.3804   -1.4356    0.4135 H   0  0  0  0  0  0  0  0  0  0  0  0
   -4.8404   -0.1672   -3.6905 H   0  0  0  0  0  0  0  0  0  0  0  0
   -6.5299   -1.9276   -4.0303 H   0  0  0  0  0  0  0  0  0  0  0  0
   -3.6175    1.2176   -2.1781 H   0  0  0  0  0  0  0  0  0  0  0  0
   -1.2697    0.6659   -1.6815 H   0  0  0  0  0  0  0  0  0  0  0  0
   -2.0267   -0.4497   -2.8255 H   0  0  0  0  0  0  0  0  0  0  0  0
   -1.8170   -1.1944    0.1658 H   0  0  0  0  0  0  0  0  0  0  0  0
   -2.2261   -2.2388   -1.2232 H   0  0  0  0  0  0  0  0  0  0  0  0
    0.0231   -1.8007   -2.2233 H   0  0  0  0  0  0  0  0  0  0  0  0
    0.0638   -2.7426   -0.7154 H   0  0  0  0  0  0  0  0  0  0  0  0
    2.4011    0.4101   -1.2138 H   0  0  0  0  0  0  0  0  0  0  0  0
    2.0258   -0.9672   -2.2517 H   0  0  0  0  0  0  0  0  0  0  0  0
    4.0972   -1.4715   -1.0477 H   0  0  0  0  0  0  0  0  0  0  0  0
    2.7981   -2.5430   -0.4660 H   0  0  0  0  0  0  0  0  0  0  0  0
    2.1113    0.8023    1.2983 H   0  0  0  0  0  0  0  0  0  0  0  0
    2.0941   -0.3459    2.6652 H   0  0  0  0  0  0  0  0  0  0  0  0
   -0.0293   -0.3974    1.4461 H   0  0  0  0  0  0  0  0  0  0  0  0
    0.8054   -1.9677    1.2567 H   0  0  0  0  0  0  0  0  0  0  0  0
    5.7686    0.0559    2.7914 H   0  0  0  0  0  0  0  0  0  0  0  0
    6.5380   -0.7774    1.3589 H   0  0  0  0  0  0  0  0  0  0  0  0
    5.5895   -2.5483    3.0544 H   0  0  0  0  0  0  0  0  0  0  0  0
    5.2234    0.5395   -1.4790 H   0  0  0  0  0  0  0  0  0  0  0  0
    5.3907    2.8110   -2.4319 H   0  0  0  0  0  0  0  0  0  0  0  0
    4.9478    4.7944   -1.0110 H   0  0  0  0  0  0  0  0  0  0  0  0
    4.3395    4.4998    1.3751 H   0  0  0  0  0  0  0  0  0  0  0  0
    4.1564    2.2273    2.3382 H   0  0  0  0  0  0  0  0  0  0  0  0
   -5.7042    1.4371   -0.2969 H   0  0  0  0  0  0  0  0  0  0  0  0
   -5.9857    2.6566    1.8160 H   0  0  0  0  0  0  0  0  0  0  0  0
   -1.7664    2.4080    2.5518 H   0  0  0  0  0  0  0  0  0  0  0  0
   -1.4482    1.2077    0.4593 H   0  0  0  0  0  0  0  0  0  0  0  0
  1  2  1  0
  2  3  2  0
  3  4  1  0
  4  5  2  0
  5  6  1  0
  6  7  2  0
  5  8  1  0
  8  9  1  0
  9 10  1  0
 10 11  1  0
 11 12  1  0
 12 13  1  0
 13 14  1  0
 14 15  1  0
 15 16  1  0
 16 17  1  0
 15 18  1  0
 18 19  1  0
 19 20  1  0
 20 21  1  0
 21 22  2  0
 18 23  1  0
 23 24  2  0
 24 25  1  0
 25 26  2  0
 26 27  1  0
 27 28  2  0
  8 29  1  0
 29 30  2  0
 30 31  1  0
 31 32  2  0
 32 33  1  0
 32 34  1  0
 34 35  2  0
  7  2  1  0
 17 12  1  0
 28 23  1  0
 35 29  1  0
 21 15  1  0
  3 36  1  0
  4 37  1  0
  6 38  1  0
  7 39  1  0
  8 40  1  0
  9 41  1  0
  9 42  1  0
 10 43  1  0
 10 44  1  0
 11 45  1  0
 11 46  1  0
 13 47  1  0
 13 48  1  0
 14 49  1  0
 14 50  1  0
 16 51  1  0
 16 52  1  0
 17 53  1  0
 17 54  1  0
 19 55  1  0
 19 56  1  0
 20 57  1  0
 24 58  1  0
 25 59  1  0
 26 60  1  0
 27 61  1  0
 28 62  1  0
 30 63  1  0
 31 64  1  0
 34 65  1  0
 35 66  1  0
M  END
$$$$
