
     RDKit          3D

 50 54  0  0  0  0  0  0  0  0999 V2000
   -6.5685   -2.0766   -2.8174 Cl  0  0  0  0  0  0  0  0  0  0  0  0
   -6.6820   -0.6869   -1.7468 C   0  0  0  0  0  0  0  0  0  0  0  0
   -5.5200   -0.0952   -1.1951 C   0  0  0  0  0  0  0  0  0  0  0  0
   -4.2087   -0.5744   -1.5359 N   0  0  0  0  0  0  0  0  0  0  0  0
   -3.1272   -0.6996   -0.5995 C   0  0  0  0  0  0  0  0  0  0  0  0
   -1.8476   -0.6908   -1.0600 N   0  0  0  0  0  0  0  0  0  0  0  0
   -0.7881   -0.8370   -0.2200 C   0  0  0  0  0  0  0  0  0  0  0  0
    0.5449   -0.7796   -0.7475 N   0  0  0  0  0  0  0  0  0  0  0  0
    1.7237   -1.1377   -0.0066 C   0  0  0  0  0  0  0  0  0  0  0  0
    2.9168   -0.4342   -0.2307 C   0  0  0  0  0  0  0  0  0  0  0  0
    4.0918   -0.7725    0.4613 C   0  0  0  0  0  0  0  0  0  0  0  0
    4.0631   -1.8343    1.3810 C   0  0  0  0  0  0  0  0  0  0  0  0
    2.8852   -2.5548    1.5893 C   0  0  0  0  0  0  0  0  0  0  0  0
    1.7220   -2.2162    0.8945 C   0  0  0  0  0  0  0  0  0  0  0  0
    5.3048   -0.0291    0.2347 N   0  0  0  0  0  0  0  0  0  0  0  0
    6.1892    0.3047    1.3552 C   0  0  0  0  0  0  0  0  0  0  0  0
    6.9625    1.5880    1.0361 C   0  0  0  0  0  0  0  0  0  0  0  0
    7.6145    1.4848   -0.2159 O   0  0  0  0  0  0  0  0  0  0  0  0
    6.6532    1.3794   -1.2495 C   0  0  0  0  0  0  0  0  0  0  0  0
    5.8558    0.0783   -1.1200 C   0  0  0  0  0  0  0  0  0  0  0  0
   -1.0047   -0.9860    1.1152 N   0  0  0  0  0  0  0  0  0  0  0  0
   -2.2636   -1.0191    1.6212 C   0  0  0  0  0  0  0  0  0  0  0  0
   -3.3595   -0.8866    0.7710 C   0  0  0  0  0  0  0  0  0  0  0  0
   -5.6987    1.0125   -0.3574 C   0  0  0  0  0  0  0  0  0  0  0  0
   -6.9312    1.4935   -0.0511 C   0  0  0  0  0  0  0  0  0  0  0  0
   -6.8076    2.5862    0.7850 O   0  0  0  0  0  0  0  0  0  0  0  0
   -5.4108    2.8120    1.0158 C   0  0  0  0  0  0  0  0  0  0  0  0
   -4.7402    1.7922    0.2638 O   0  0  0  0  0  0  0  0  0  0  0  0
   -8.0933    0.9225   -0.5583 C   0  0  0  0  0  0  0  0  0  0  0  0
   -7.9611   -0.1806   -1.4192 C   0  0  0  0  0  0  0  0  0  0  0  0
   -4.0233   -0.8408   -2.5290 H   0  0  0  0  0  0  0  0  0  0  0  0
    0.6682   -0.3740   -1.7031 H   0  0  0  0  0  0  0  0  0  0  0  0
    2.9208    0.3970   -0.9248 H   0  0  0  0  0  0  0  0  0  0  0  0
    4.9569   -2.1191    1.9206 H   0  0  0  0  0  0  0  0  0  0  0  0
    2.8766   -3.3853    2.2834 H   0  0  0  0  0  0  0  0  0  0  0  0
    0.8311   -2.8112    1.0450 H   0  0  0  0  0  0  0  0  0  0  0  0
    6.9058   -0.5288    1.5204 H   0  0  0  0  0  0  0  0  0  0  0  0
    5.5975    0.4606    2.2837 H   0  0  0  0  0  0  0  0  0  0  0  0
    6.2816    2.4694    1.0628 H   0  0  0  0  0  0  0  0  0  0  0  0
    7.7303    1.7458    1.8226 H   0  0  0  0  0  0  0  0  0  0  0  0
    5.9672    2.2573   -1.2517 H   0  0  0  0  0  0  0  0  0  0  0  0
    7.1826    1.3770   -2.2256 H   0  0  0  0  0  0  0  0  0  0  0  0
    5.0516    0.0680   -1.8857 H   0  0  0  0  0  0  0  0  0  0  0  0
    6.5267   -0.7875   -1.3088 H   0  0  0  0  0  0  0  0  0  0  0  0
   -2.4133   -1.1530    2.6842 H   0  0  0  0  0  0  0  0  0  0  0  0
   -4.3626   -0.9387    1.1735 H   0  0  0  0  0  0  0  0  0  0  0  0
   -5.1789    2.7053    2.0963 H   0  0  0  0  0  0  0  0  0  0  0  0
   -5.1181    3.8166    0.6450 H   0  0  0  0  0  0  0  0  0  0  0  0
   -9.0669    1.3205   -0.3045 H   0  0  0  0  0  0  0  0  0  0  0  0
   -8.8487   -0.6418   -1.8330 H   0  0  0  0  0  0  0  0  0  0  0  0
  1  2  1  0
  2  3  2  0
  3  4  1  0
  4  5  1  0
  5  6  2  0
  6  7  1  0
  7  8  1  0
  8  9  1  0
  9 10  2  0
 10 11  1  0
 11 12  2  0
 12 13  1  0
 13 14  2  0
 11 15  1  0
 15 16  1  0
 16 17  1  0
 17 18  1  0
 18 19  1  0
 19 20  1  0
  7 21  2  0
 21 22  1  0
 22 23  2  0
  3 24  1  0
 24 25  2  0
 25 26  1  0
 26 27  1  0
 27 28  1  0
 25 29  1  0
 29 30  2  0
 30  2  1  0
 23  5  1  0
 28 24  1  0
 14  9  1  0
 20 15  1  0
  4 31  1  0
  8 32  1  0
 10 33  1  0
 12 34  1  0
 13 35  1  0
 14 36  1  0
 16 37  1  0
 16 38  1  0
 17 39  1  0
 17 40  1  0
 19 41  1  0
 19 42  1  0
 20 43  1  0
 20 44  1  0
 22 45  1  0
 23 46  1  0
 27 47  1  0
 27 48  1  0
 29 49  1  0
 30 50  1  0
M  END
$$$$
