
     RDKit          3D

 51 54  0  0  0  0  0  0  0  0999 V2000
    0.3644    0.0182    2.3871 C   0  0  2  0  0  0  0  0  0  0  0  0
   -1.0110    0.5783    1.9811 C   0  0  0  0  0  0  0  0  0  0  0  0
   -2.0934   -0.1778    2.6224 N   0  0  0  0  0  0  0  0  0  0  0  0
   -3.6365    0.3320    1.9974 S   0  0  0  0  0  6  0  0  0  0  0  0
   -4.7069   -0.2159    2.8985 O   0  0  0  0  0  0  0  0  0  0  0  0
   -3.6927    1.8349    2.0249 O   0  0  0  0  0  0  0  0  0  0  0  0
   -3.9499   -0.2374    0.3375 C   0  0  0  0  0  0  0  0  0  0  0  0
   -3.0377   -1.1154   -0.2773 C   0  0  0  0  0  0  0  0  0  0  0  0
   -3.2377   -1.5613   -1.5829 C   0  0  0  0  0  0  0  0  0  0  0  0
   -4.3556   -1.1518   -2.3028 C   0  0  0  0  0  0  0  0  0  0  0  0
   -5.2952   -0.2975   -1.7145 C   0  0  0  0  0  0  0  0  0  0  0  0
   -6.4303    0.1029   -2.4339 C   0  0  0  0  0  0  0  0  0  0  0  0
   -7.3504    0.9190   -1.8600 N   0  0  0  0  0  0  0  0  0  0  0  0
   -7.2093    1.3698   -0.5879 C   0  0  0  0  0  0  0  0  0  0  0  0
   -6.0968    1.0029    0.1715 C   0  0  0  0  0  0  0  0  0  0  0  0
   -5.1089    0.1640   -0.3847 C   0  0  0  0  0  0  0  0  0  0  0  0
    1.5005    0.8631    1.8190 C   0  0  0  0  0  0  0  0  0  0  0  0
    1.8512    0.1864    0.5146 C   0  0  2  0  0  0  0  0  0  0  0  0
    1.5034   -1.2779    0.7650 C   0  0  0  0  0  0  0  0  0  0  0  0
    0.5229   -1.3396    1.8534 N   0  0  0  0  0  0  0  0  0  0  0  0
    3.2293    0.3557    0.2358 O   0  0  0  0  0  0  0  0  0  0  0  0
    3.4742    0.1810   -1.1439 C   0  0  0  0  0  0  0  0  0  0  0  0
    4.9567    0.1979   -1.3774 C   0  0  0  0  0  0  0  0  0  0  0  0
    5.6183    1.4052   -1.6563 C   0  0  0  0  0  0  0  0  0  0  0  0
    7.0051    1.4235   -1.8348 C   0  0  0  0  0  0  0  0  0  0  0  0
    7.7425    0.2400   -1.7236 C   0  0  0  0  0  0  0  0  0  0  0  0
    9.4823    0.2652   -1.9455 Cl  0  0  0  0  0  0  0  0  0  0  0  0
    7.0917   -0.9625   -1.4282 C   0  0  0  0  0  0  0  0  0  0  0  0
    5.7050   -0.9837   -1.2493 C   0  0  0  0  0  0  0  0  0  0  0  0
    0.4285    0.0136    3.5001 H   0  0  0  0  0  0  0  0  0  0  0  0
   -1.0741    1.6380    2.3120 H   0  0  0  0  0  0  0  0  0  0  0  0
   -1.1100    0.5571    0.8741 H   0  0  0  0  0  0  0  0  0  0  0  0
   -1.9926   -1.2000    2.4346 H   0  0  0  0  0  0  0  0  0  0  0  0
   -2.1589   -1.4664    0.2397 H   0  0  0  0  0  0  0  0  0  0  0  0
   -2.5193   -2.2302   -2.0395 H   0  0  0  0  0  0  0  0  0  0  0  0
   -4.4907   -1.5097   -3.3167 H   0  0  0  0  0  0  0  0  0  0  0  0
   -6.5885   -0.2352   -3.4506 H   0  0  0  0  0  0  0  0  0  0  0  0
   -7.9661    2.0146   -0.1614 H   0  0  0  0  0  0  0  0  0  0  0  0
   -6.0348    1.3743    1.1830 H   0  0  0  0  0  0  0  0  0  0  0  0
    2.3680    0.8190    2.5156 H   0  0  0  0  0  0  0  0  0  0  0  0
    1.2219    1.9289    1.6653 H   0  0  0  0  0  0  0  0  0  0  0  0
    1.1905    0.6089   -0.2818 H   0  0  0  0  0  0  0  0  0  0  0  0
    1.0666   -1.7298   -0.1509 H   0  0  0  0  0  0  0  0  0  0  0  0
    2.4195   -1.8516    1.0371 H   0  0  0  0  0  0  0  0  0  0  0  0
    0.9034   -1.9547    2.6114 H   0  0  0  0  0  0  0  0  0  0  0  0
    2.9985    1.0020   -1.7274 H   0  0  0  0  0  0  0  0  0  0  0  0
    3.0619   -0.7877   -1.5099 H   0  0  0  0  0  0  0  0  0  0  0  0
    5.0614    2.3308   -1.7348 H   0  0  0  0  0  0  0  0  0  0  0  0
    7.5055    2.3578   -2.0552 H   0  0  0  0  0  0  0  0  0  0  0  0
    7.6590   -1.8795   -1.3331 H   0  0  0  0  0  0  0  0  0  0  0  0
    5.2148   -1.9196   -1.0103 H   0  0  0  0  0  0  0  0  0  0  0  0
  1  2  1  0
  2  3  1  0
  3  4  1  0
  4  5  2  0
  4  6  2  0
  4  7  1  0
  7  8  2  0
  8  9  1  0
  9 10  2  0
 10 11  1  0
 11 12  2  0
 12 13  1  0
 13 14  2  0
 14 15  1  0
 15 16  2  0
  1 17  1  0
 17 18  1  0
 18 19  1  0
 19 20  1  0
 18 21  1  0
 21 22  1  0
 22 23  1  0
 23 24  2  0
 24 25  1  0
 25 26  2  0
 26 27  1  0
 26 28  1  0
 28 29  2  0
 20  1  1  0
 29 23  1  0
 16  7  1  0
 16 11  1  0
  1 30  1  1
  2 31  1  0
  2 32  1  0
  3 33  1  0
  8 34  1  0
  9 35  1  0
 10 36  1  0
 12 37  1  0
 14 38  1  0
 15 39  1  0
 17 40  1  0
 17 41  1  0
 18 42  1  6
 19 43  1  0
 19 44  1  0
 20 45  1  0
 22 46  1  0
 22 47  1  0
 24 48  1  0
 25 49  1  0
 28 50  1  0
 29 51  1  0
M  END
$$$$
