
     RDKit          3D

 49 52  0  0  0  0  0  0  0  0999 V2000
    1.9410   -1.9032   -4.5325 C   0  0  0  0  0  0  0  0  0  0  0  0
    1.8744   -1.2191   -3.2447 N   0  0  0  0  0  0  0  0  0  0  0  0
    2.9199   -0.7104   -2.5536 C   0  0  0  0  0  0  0  0  0  0  0  0
    2.4796   -0.1446   -1.3605 C   0  0  0  0  0  0  0  0  0  0  0  0
    3.3376    0.5246   -0.3646 C   0  0  0  0  0  0  0  0  0  0  0  0
    2.9486    1.5631    0.4868 C   0  0  0  0  0  0  0  0  0  0  0  0
    4.0875    1.8918    1.1879 C   0  0  0  0  0  0  0  0  0  0  0  0
    4.3244    2.8556    2.1618 C   0  0  0  0  0  0  0  0  0  0  0  0
    5.6302    2.9471    2.6755 C   0  0  0  0  0  0  0  0  0  0  0  0
    6.6377    2.0806    2.1923 C   0  0  0  0  0  0  0  0  0  0  0  0
    6.3532    1.1543    1.2275 N   0  0  0  0  0  0  0  0  0  0  0  0
    5.0877    1.0755    0.7452 C   0  0  0  0  0  0  0  0  0  0  0  0
    4.6540    0.2381   -0.2078 N   0  0  0  0  0  0  0  0  0  0  0  0
    1.1062   -0.3465   -1.3323 C   0  0  0  0  0  0  0  0  0  0  0  0
    0.1451   -0.0617   -0.3593 C   0  0  0  0  0  0  0  0  0  0  0  0
   -1.1975   -0.4304   -0.6073 C   0  0  0  0  0  0  0  0  0  0  0  0
   -1.5296   -1.0723   -1.8290 C   0  0  0  0  0  0  0  0  0  0  0  0
   -0.5377   -1.3711   -2.7775 C   0  0  0  0  0  0  0  0  0  0  0  0
    0.7766   -0.9990   -2.4948 C   0  0  0  0  0  0  0  0  0  0  0  0
   -2.2416   -0.1270    0.4001 C   0  0  0  0  0  0  0  0  0  0  0  0
   -2.0584    0.8329    1.1955 O   0  0  0  0  0  0  0  0  0  0  0  0
   -3.4372   -0.9291    0.4870 N   0  0  0  0  0  0  0  0  0  0  0  0
   -4.6665   -0.5763    1.2299 C   0  0  0  0  0  0  0  0  0  0  0  0
   -5.8045   -1.5083    0.7574 C   0  0  0  0  0  0  0  0  0  0  0  0
   -5.0988    0.8760    0.9285 C   0  0  0  0  0  0  0  0  0  0  0  0
   -4.4672   -0.8052    2.7501 C   0  0  0  0  0  0  0  0  0  0  0  0
   -3.5054    0.0572    3.2959 O   0  0  0  0  0  0  0  0  0  0  0  0
    1.2675   -1.4016   -5.2588 H   0  0  0  0  0  0  0  0  0  0  0  0
    1.6276   -2.9611   -4.4097 H   0  0  0  0  0  0  0  0  0  0  0  0
    2.9767   -1.8799   -4.9339 H   0  0  0  0  0  0  0  0  0  0  0  0
    3.9456   -0.7345   -2.8998 H   0  0  0  0  0  0  0  0  0  0  0  0
    1.9859    2.0502    0.5526 H   0  0  0  0  0  0  0  0  0  0  0  0
    3.5362    3.5098    2.5115 H   0  0  0  0  0  0  0  0  0  0  0  0
    5.8635    3.6800    3.4368 H   0  0  0  0  0  0  0  0  0  0  0  0
    7.6429    2.1519    2.5857 H   0  0  0  0  0  0  0  0  0  0  0  0
    5.2162   -0.4800   -0.7167 H   0  0  0  0  0  0  0  0  0  0  0  0
    0.4244    0.3955    0.5786 H   0  0  0  0  0  0  0  0  0  0  0  0
   -2.5545   -1.3319   -2.0584 H   0  0  0  0  0  0  0  0  0  0  0  0
   -0.7936   -1.8750   -3.7004 H   0  0  0  0  0  0  0  0  0  0  0  0
   -3.4235   -1.8458   -0.0150 H   0  0  0  0  0  0  0  0  0  0  0  0
   -5.5521   -2.5710    0.9642 H   0  0  0  0  0  0  0  0  0  0  0  0
   -5.9663   -1.3986   -0.3369 H   0  0  0  0  0  0  0  0  0  0  0  0
   -6.7581   -1.2713    1.2776 H   0  0  0  0  0  0  0  0  0  0  0  0
   -4.3759    1.6183    1.3197 H   0  0  0  0  0  0  0  0  0  0  0  0
   -6.0817    1.0955    1.3987 H   0  0  0  0  0  0  0  0  0  0  0  0
   -5.1913    1.0289   -0.1684 H   0  0  0  0  0  0  0  0  0  0  0  0
   -4.1266   -1.8496    2.9192 H   0  0  0  0  0  0  0  0  0  0  0  0
   -5.4371   -0.6914    3.2902 H   0  0  0  0  0  0  0  0  0  0  0  0
   -3.9851    0.8691    3.6060 H   0  0  0  0  0  0  0  0  0  0  0  0
  1  2  1  0
  2  3  1  0
  3  4  2  0
  4  5  1  0
  5  6  2  0
  6  7  1  0
  7  8  2  0
  8  9  1  0
  9 10  2  0
 10 11  1  0
 11 12  2  0
 12 13  1  0
  4 14  1  0
 14 15  2  0
 15 16  1  0
 16 17  2  0
 17 18  1  0
 18 19  2  0
 16 20  1  0
 20 21  2  0
 20 22  1  0
 22 23  1  0
 23 24  1  0
 23 25  1  0
 23 26  1  0
 26 27  1  0
 19  2  1  0
 13  5  1  0
 19 14  1  0
 12  7  1  0
  1 28  1  0
  1 29  1  0
  1 30  1  0
  3 31  1  0
  6 32  1  0
  8 33  1  0
  9 34  1  0
 10 35  1  0
 13 36  1  0
 15 37  1  0
 17 38  1  0
 18 39  1  0
 22 40  1  0
 24 41  1  0
 24 42  1  0
 24 43  1  0
 25 44  1  0
 25 45  1  0
 25 46  1  0
 26 47  1  0
 26 48  1  0
 27 49  1  0
M  END
$$$$
