
     RDKit          3D

 94 84  0  0  0  0  0  0  0  0999 V2000
    0.0000    0.0000    0.0000 Fe  0  0  0  0  0 15  0  0  0  0  0  0
    0.0000    0.0000    0.0000 Fe  0  0  0  0  0 15  0  0  0  0  0  0
    0.0000    0.0000    0.0000 Fe  0  0  0  0  0 15  0  0  0  0  0  0
    0.0000    0.0000    0.0000 Fe  0  0  0  0  0 15  0  0  0  0  0  0
    2.5511   -0.9812    0.8251 O   0  0  0  0  0  0  0  0  0  0  0  0
    1.2069   -0.0268    0.4460 P   0  0  0  0  0  5  0  0  0  0  0  0
    1.1373    0.1711   -1.2348 O   0  0  0  0  0  0  0  0  0  0  0  0
    1.3686    1.3221    1.1107 O   0  0  0  0  0  0  0  0  0  0  0  0
   -0.1903   -0.8035    1.0316 O   0  0  0  0  0  0  0  0  0  0  0  0
   -1.5422    0.0342    0.4241 P   0  0  0  0  0  5  0  0  0  0  0  0
   -1.6558   -0.1727   -1.2522 O   0  0  0  0  0  0  0  0  0  0  0  0
   -1.4436    1.6865    0.7824 O   0  0  0  0  0  0  0  0  0  0  0  0
   -2.7890   -0.5293    1.0672 O   0  0  0  0  0  0  0  0  0  0  0  0
    1.8889   -0.6049   -1.0421 O   0  0  0  0  0  0  0  0  0  0  0  0
    1.4906    0.2843    0.3432 P   0  0  0  0  0  5  0  0  0  0  0  0
    1.2549    1.9069   -0.0777 O   0  0  0  0  0  0  0  0  0  0  0  0
    2.6398    0.1999    1.3219 O   0  0  0  0  0  0  0  0  0  0  0  0
    0.0939   -0.3417    1.0889 O   0  0  0  0  0  0  0  0  0  0  0  0
   -1.1368   -0.4058   -0.0860 P   0  0  0  0  0  5  0  0  0  0  0  0
   -1.3210    1.0908   -0.8566 O   0  0  0  0  0  0  0  0  0  0  0  0
   -2.5927   -0.7999    0.6806 O   0  0  0  0  0  0  0  0  0  0  0  0
   -0.8227   -1.4713   -1.1129 O   0  0  0  0  0  0  0  0  0  0  0  0
    1.2153   -0.5272    1.3410 O   0  0  0  0  0  0  0  0  0  0  0  0
    1.2522    0.2098   -0.1834 P   0  0  0  0  0  5  0  0  0  0  0  0
    1.2336    1.8915    0.0015 O   0  0  0  0  0  1  0  0  0  0  0  0
    2.5328   -0.1832   -0.8838 O   0  0  0  0  0  0  0  0  0  0  0  0
   -0.0655   -0.2924   -1.1370 O   0  0  0  0  0  0  0  0  0  0  0  0
   -1.4890    0.0037   -0.2516 P   0  0  0  0  0  5  0  0  0  0  0  0
   -1.5521    1.6069    0.2871 O   0  0  0  0  0  1  0  0  0  0  0  0
   -2.8167   -0.2774   -1.2600 O   0  0  0  0  0  1  0  0  0  0  0  0
   -1.5734   -0.9329    0.9326 O   0  0  0  0  0  0  0  0  0  0  0  0
    0.9475   -1.1296    1.0953 O   0  0  0  0  0  0  0  0  0  0  0  0
    0.0417   -0.6101    0.1463 C   0  0  0  0  0  0  0  0  0  0  0  0
    0.8007   -0.3367   -1.1844 C   0  0  0  0  0  0  0  0  0  0  0  0
    1.9353    0.6349   -1.0351 C   0  0  0  0  0  0  0  0  0  0  0  0
    3.1958    0.1816   -0.6666 O   0  0  0  0  0  1  0  0  0  0  0  0
    1.7481    1.8652   -1.2262 O   0  0  0  0  0  0  0  0  0  0  0  0
   -0.6397    0.6690    0.7173 C   0  0  0  0  0  0  0  0  0  0  0  0
   -1.6701    1.2639   -0.2003 C   0  0  0  0  0  0  0  0  0  0  0  0
   -1.3100    2.2539   -1.1058 O   0  0  0  0  0  1  0  0  0  0  0  0
   -2.8613    0.8575   -0.1645 O   0  0  0  0  0  0  0  0  0  0  0  0
   -1.0161   -1.6693   -0.0843 C   0  0  0  0  0  0  0  0  0  0  0  0
   -1.6282   -1.8084   -1.3258 O   0  0  0  0  0  1  0  0  0  0  0  0
   -1.3996   -2.3962    0.8709 O   0  0  0  0  0  0  0  0  0  0  0  0
   -0.5161   -0.8813   -1.2394 O   0  0  0  0  0  0  0  0  0  0  0  0
    0.0266   -0.4198   -0.0216 C   0  0  0  0  0  0  0  0  0  0  0  0
   -0.6319    0.9336    0.3770 C   0  0  0  0  0  0  0  0  0  0  0  0
   -2.1026    0.8163    0.6575 C   0  0  0  0  0  0  0  0  0  0  0  0
   -3.0235    0.9995   -0.3666 O   0  0  0  0  0  1  0  0  0  0  0  0
   -2.5079    0.5311    1.8150 O   0  0  0  0  0  0  0  0  0  0  0  0
    1.5515   -0.2342   -0.2136 C   0  0  0  0  0  0  0  0  0  0  0  0
    1.8893    0.6859   -1.3507 C   0  0  0  0  0  0  0  0  0  0  0  0
    1.8686    0.2151   -2.6575 O   0  0  0  0  0  1  0  0  0  0  0  0
    2.1706    1.8930   -1.1280 O   0  0  0  0  0  0  0  0  0  0  0  0
   -0.1716   -1.4608    1.0652 C   0  0  0  0  0  0  0  0  0  0  0  0
   -0.5356   -2.7612    0.7345 O   0  0  0  0  0  1  0  0  0  0  0  0
    0.0496   -1.1731    2.2722 O   0  0  0  0  0  0  0  0  0  0  0  0
    1.1044    0.1640    1.1441 O   0  0  0  0  0  0  0  0  0  0  0  0
    0.1125   -0.2942    0.2511 C   0  0  0  0  0  0  0  0  0  0  0  0
   -1.2957    0.0906    0.7835 C   0  0  0  0  0  0  0  0  0  0  0  0
   -1.4235    1.5549    1.0868 C   0  0  0  0  0  0  0  0  0  0  0  0
   -2.0006    2.4110    0.1572 O   0  0  0  0  0  1  0  0  0  0  0  0
   -0.9897    2.0178    2.1745 O   0  0  0  0  0  0  0  0  0  0  0  0
    0.3558    0.3541   -1.1345 C   0  0  0  0  0  0  0  0  0  0  0  0
    1.7121    0.0280   -1.6897 C   0  0  0  0  0  0  0  0  0  0  0  0
    2.8204    0.7689   -1.2991 O   0  0  0  0  0  1  0  0  0  0  0  0
    1.8565   -0.9368   -2.4858 O   0  0  0  0  0  0  0  0  0  0  0  0
    0.1900   -1.8035    0.1163 C   0  0  0  0  0  0  0  0  0  0  0  0
   -0.8119   -2.4982   -0.5524 O   0  0  0  0  0  1  0  0  0  0  0  0
    1.1823   -2.4374    0.5652 O   0  0  0  0  0  0  0  0  0  0  0  0
    2.3872   -1.8408    0.3614 H   0  0  0  0  0  0  0  0  0  0  0  0
    2.0130    0.5635   -1.4797 H   0  0  0  0  0  0  0  0  0  0  0  0
   -1.6238   -1.1532   -1.3883 H   0  0  0  0  0  0  0  0  0  0  0  0
   -1.4195    1.7300    1.7717 H   0  0  0  0  0  0  0  0  0  0  0  0
    2.0449   -1.5268   -0.7150 H   0  0  0  0  0  0  0  0  0  0  0  0
    0.9515    2.3431    0.7582 H   0  0  0  0  0  0  0  0  0  0  0  0
   -2.0890    0.9669   -1.4696 H   0  0  0  0  0  0  0  0  0  0  0  0
   -2.4024   -1.6414    1.1671 H   0  0  0  0  0  0  0  0  0  0  0  0
    1.2628   -1.4987    1.1536 H   0  0  0  0  0  0  0  0  0  0  0  0
    1.5358   -0.3942    1.4091 H   0  0  0  0  0  0  0  0  0  0  0  0
    1.2175   -1.2935   -1.5689 H   0  0  0  0  0  0  0  0  0  0  0  0
    0.1033    0.0443   -1.9617 H   0  0  0  0  0  0  0  0  0  0  0  0
    0.1244    1.4445    0.9386 H   0  0  0  0  0  0  0  0  0  0  0  0
   -1.1252    0.4232    1.6876 H   0  0  0  0  0  0  0  0  0  0  0  0
   -1.4727   -1.1030   -1.0933 H   0  0  0  0  0  0  0  0  0  0  0  0
   -0.1273    1.3538    1.2750 H   0  0  0  0  0  0  0  0  0  0  0  0
   -0.5003    1.6702   -0.4441 H   0  0  0  0  0  0  0  0  0  0  0  0
    2.0113    0.1556    0.7221 H   0  0  0  0  0  0  0  0  0  0  0  0
    2.0220   -1.2206   -0.4219 H   0  0  0  0  0  0  0  0  0  0  0  0
    0.9202   -0.2325    2.0366 H   0  0  0  0  0  0  0  0  0  0  0  0
   -1.5136   -0.4797    1.7137 H   0  0  0  0  0  0  0  0  0  0  0  0
   -2.0752   -0.1898    0.0413 H   0  0  0  0  0  0  0  0  0  0  0  0
   -0.4252    0.0234   -1.8549 H   0  0  0  0  0  0  0  0  0  0  0  0
    0.2810    1.4594   -1.0538 H   0  0  0  0  0  0  0  0  0  0  0  0
  5  6  1  0
  6  7  1  0
  6  8  2  0
  6  9  1  0
  9 10  1  0
 10 11  1  0
 10 12  1  0
 10 13  2  0
 14 15  1  0
 15 16  1  0
 15 17  2  0
 15 18  1  0
 18 19  1  0
 19 20  1  0
 19 21  1  0
 19 22  2  0
 23 24  1  0
 24 25  1  0
 24 26  2  0
 24 27  1  0
 27 28  1  0
 28 29  1  0
 28 30  1  0
 28 31  2  0
 32 33  1  0
 33 34  1  0
 34 35  1  0
 35 36  1  0
 35 37  2  0
 33 38  1  0
 38 39  1  0
 39 40  1  0
 39 41  2  0
 33 42  1  0
 42 43  1  0
 42 44  2  0
 45 46  1  0
 46 47  1  0
 47 48  1  0
 48 49  1  0
 48 50  2  0
 46 51  1  0
 51 52  1  0
 52 53  1  0
 52 54  2  0
 46 55  1  0
 55 56  1  0
 55 57  2  0
 58 59  1  0
 59 60  1  0
 60 61  1  0
 61 62  1  0
 61 63  2  0
 59 64  1  0
 64 65  1  0
 65 66  1  0
 65 67  2  0
 59 68  1  0
 68 69  1  0
 68 70  2  0
  5 71  1  0
  7 72  1  0
 11 73  1  0
 12 74  1  0
 14 75  1  0
 16 76  1  0
 20 77  1  0
 21 78  1  0
 23 79  1  0
 32 80  1  0
 34 81  1  0
 34 82  1  0
 38 83  1  0
 38 84  1  0
 45 85  1  0
 47 86  1  0
 47 87  1  0
 51 88  1  0
 51 89  1  0
 58 90  1  0
 60 91  1  0
 60 92  1  0
 64 93  1  0
 64 94  1  0
M  CHG  8   1   3   2   3   3   3   4   3  25  -1  29  -1  30  -1  36  -1
M  CHG  8  40  -1  43  -1  49  -1  53  -1  56  -1  62  -1  66  -1  69  -1
M  END
$$$$
