
     RDKit          3D

 30 32  0  0  0  0  0  0  0  0999 V2000
    1.5469   -2.0532   -0.1210 O   0  0  0  0  0  0  0  0  0  0  0  0
    1.6148   -0.7970   -0.2023 C   0  0  0  0  0  0  0  0  0  0  0  0
    0.4102   -0.0085   -0.2118 N   0  0  0  0  0  0  0  0  0  0  0  0
   -0.9163   -0.5584   -0.2143 C   0  0  0  0  0  0  0  0  0  0  0  0
   -2.0495    0.1231    0.1709 C   0  0  0  0  0  0  0  0  0  0  0  0
   -3.0781   -0.7786   -0.0692 C   0  0  0  0  0  0  0  0  0  0  0  0
   -2.5710   -1.9166   -0.5860 N   0  0  0  0  0  0  0  0  0  0  0  0
   -1.2583   -1.7768   -0.6749 N   0  0  0  0  0  0  0  0  0  0  0  0
   -4.5543   -0.5839    0.1627 C   0  0  0  0  0  0  0  0  0  0  0  0
   -4.9383    0.2884    1.3491 C   0  0  0  0  0  0  0  0  0  0  0  0
   -5.0882    0.8222   -0.0684 C   0  0  0  0  0  0  0  0  0  0  0  0
    2.9507   -0.1574   -0.2792 C   0  0  0  0  0  0  0  0  0  0  0  0
    4.0270   -0.8567   -0.8570 C   0  0  0  0  0  0  0  0  0  0  0  0
    5.2944   -0.2712   -0.9339 C   0  0  0  0  0  0  0  0  0  0  0  0
    5.5045    1.0130   -0.4278 C   0  0  0  0  0  0  0  0  0  0  0  0
    4.4488    1.7119    0.1613 C   0  0  0  0  0  0  0  0  0  0  0  0
    3.1786    1.1318    0.2400 C   0  0  0  0  0  0  0  0  0  0  0  0
    0.4814    1.0323   -0.1959 H   0  0  0  0  0  0  0  0  0  0  0  0
   -2.1107    1.1299    0.5622 H   0  0  0  0  0  0  0  0  0  0  0  0
   -0.6307   -2.4997   -1.0878 H   0  0  0  0  0  0  0  0  0  0  0  0
   -5.2612   -1.4079   -0.0726 H   0  0  0  0  0  0  0  0  0  0  0  0
   -4.1066    0.7496    1.9220 H   0  0  0  0  0  0  0  0  0  0  0  0
   -5.9024    0.0150    1.8278 H   0  0  0  0  0  0  0  0  0  0  0  0
   -6.1401    0.8623   -0.4219 H   0  0  0  0  0  0  0  0  0  0  0  0
   -4.3452    1.6013   -0.3404 H   0  0  0  0  0  0  0  0  0  0  0  0
    3.8849   -1.8518   -1.2604 H   0  0  0  0  0  0  0  0  0  0  0  0
    6.1141   -0.8141   -1.3866 H   0  0  0  0  0  0  0  0  0  0  0  0
    6.4866    1.4641   -0.4865 H   0  0  0  0  0  0  0  0  0  0  0  0
    4.6165    2.7021    0.5650 H   0  0  0  0  0  0  0  0  0  0  0  0
    2.3915    1.6850    0.7334 H   0  0  0  0  0  0  0  0  0  0  0  0
  1  2  2  0
  2  3  1  0
  3  4  1  0
  4  5  2  0
  5  6  1  0
  6  7  2  0
  7  8  1  0
  6  9  1  0
  9 10  1  0
 10 11  1  0
  2 12  1  0
 12 13  2  0
 13 14  1  0
 14 15  2  0
 15 16  1  0
 16 17  2  0
  8  4  1  0
 11  9  1  0
 17 12  1  0
  3 18  1  0
  5 19  1  0
  8 20  1  0
  9 21  1  0
 10 22  1  0
 10 23  1  0
 11 24  1  0
 11 25  1  0
 13 26  1  0
 14 27  1  0
 15 28  1  0
 16 29  1  0
 17 30  1  0
M  END
$$$$
