
     RDKit          3D

 21 21  0  0  0  0  0  0  0  0999 V2000
    2.9128   -1.3079   -0.0695 C   0  0  0  0  0  0  0  0  0  0  0  0
    1.4894   -0.8382   -0.0507 C   0  0  0  0  0  0  0  0  0  0  0  0
    0.5162   -1.7015   -0.4359 N   0  0  0  0  0  0  0  0  0  0  0  0
   -0.7956   -1.3619   -0.4409 C   0  0  0  0  0  0  0  0  0  0  0  0
   -1.2082   -0.0840   -0.0250 C   0  0  0  0  0  0  0  0  0  0  0  0
   -2.6886    0.2530    0.0107 C   0  0  0  0  0  0  0  0  0  0  0  0
   -3.4935   -0.8958    0.0568 O   0  0  0  0  0  0  0  0  0  0  0  0
   -0.2103    0.8660    0.3259 C   0  0  0  0  0  0  0  0  0  0  0  0
   -0.5319    2.2729    0.6756 C   0  0  0  0  0  0  0  0  0  0  0  0
   -1.5560    2.8507    0.2254 O   0  0  0  0  0  0  0  0  0  0  0  0
    1.1451    0.4729    0.3342 C   0  0  0  0  0  0  0  0  0  0  0  0
    2.1269    1.3972    0.7083 O   0  0  0  0  0  0  0  0  0  0  0  0
    2.9690   -2.3706   -0.3883 H   0  0  0  0  0  0  0  0  0  0  0  0
    3.5033   -0.6973   -0.7845 H   0  0  0  0  0  0  0  0  0  0  0  0
    3.3523   -1.2261    0.9469 H   0  0  0  0  0  0  0  0  0  0  0  0
   -1.5157   -2.1028   -0.7615 H   0  0  0  0  0  0  0  0  0  0  0  0
   -2.9458    0.8252   -0.9052 H   0  0  0  0  0  0  0  0  0  0  0  0
   -2.9218    0.8861    0.8959 H   0  0  0  0  0  0  0  0  0  0  0  0
   -3.4119   -1.2631    0.9760 H   0  0  0  0  0  0  0  0  0  0  0  0
    0.1494    2.8455    1.2914 H   0  0  0  0  0  0  0  0  0  0  0  0
    3.1149    1.1796    0.7285 H   0  0  0  0  0  0  0  0  0  0  0  0
  1  2  1  0
  2  3  2  0
  3  4  1  0
  4  5  2  0
  5  6  1  0
  6  7  1  0
  5  8  1  0
  8  9  1  0
  9 10  2  0
  8 11  2  0
 11 12  1  0
 11  2  1  0
  1 13  1  0
  1 14  1  0
  1 15  1  0
  4 16  1  0
  6 17  1  0
  6 18  1  0
  7 19  1  0
  9 20  1  0
 12 21  1  0
M  END
$$$$
