
     RDKit          3D

109114  0  0  0  0  0  0  0  0999 V2000
   -1.9196   -2.6403    2.1621 C   0  0  2  0  0  0  0  0  0  0  0  0
   -1.8595   -1.6591    3.3277 C   0  0  0  0  0  0  0  0  0  0  0  0
   -0.4474   -1.7767    3.8760 C   0  0  0  0  0  0  0  0  0  0  0  0
    0.3988   -2.2570    2.7064 C   0  0  0  0  0  0  0  0  0  0  0  0
   -0.5324   -2.8237    1.7385 N   0  0  0  0  0  0  0  0  0  0  0  0
   -0.1296   -3.7298    0.6882 C   0  0  0  0  0  0  0  0  0  0  0  0
   -1.0094   -4.4104    0.0921 O   0  0  0  0  0  0  0  0  0  0  0  0
    1.3153   -3.8322    0.2271 C   0  0  1  0  0  0  0  0  0  0  0  0
    1.7218   -5.2958   -0.0402 C   0  0  0  0  0  0  0  0  0  0  0  0
    1.7147   -6.1436    1.2329 C   0  0  0  0  0  0  0  0  0  0  0  0
    1.4943   -3.0481   -1.0036 N   0  0  0  0  0  0  0  0  0  0  0  0
    1.8890   -1.6619   -1.0804 C   0  0  0  0  0  0  0  0  0  0  0  0
    1.4735   -0.9824   -2.0577 O   0  0  0  0  0  0  0  0  0  0  0  0
    2.8396   -1.0109   -0.0893 C   0  0  1  0  0  0  0  0  0  0  0  0
    4.2305   -1.0754   -0.5649 N   0  0  0  0  0  0  0  0  0  0  0  0
    4.7370   -0.4616   -1.7650 C   0  0  0  0  0  0  0  0  0  0  0  0
    3.9442   -0.0632   -2.6590 O   0  0  0  0  0  0  0  0  0  0  0  0
    6.1900   -0.3497   -2.0114 C   0  0  0  0  0  0  0  0  0  0  0  0
    6.6335   -0.4026   -3.2991 N   0  0  0  0  0  0  0  0  0  0  0  0
    7.9510   -0.3082   -3.6185 C   0  0  0  0  0  0  0  0  0  0  0  0
    8.9029   -0.1472   -2.6130 C   0  0  0  0  0  0  0  0  0  0  0  0
    8.4851   -0.0699   -1.2849 C   0  0  0  0  0  0  0  0  0  0  0  0
    7.1227   -0.1580   -0.9699 C   0  0  0  0  0  0  0  0  0  0  0  0
    6.7072   -0.0266    0.3543 O   0  0  0  0  0  0  0  0  0  0  0  0
    2.4081    0.4273    0.3093 C   0  0  1  0  0  0  0  0  0  0  0  0
    3.2718    0.9591    1.4581 C   0  0  0  0  0  0  0  0  0  0  0  0
    2.4963    1.3256   -0.7993 O   0  0  0  0  0  0  0  0  0  0  0  0
    1.6712    2.4435   -1.0010 C   0  0  0  0  0  0  0  0  0  0  0  0
    2.1409    3.4165   -1.6501 O   0  0  0  0  0  0  0  0  0  0  0  0
    0.2415    2.4968   -0.4932 C   0  0  1  0  0  0  0  0  0  0  0  0
    0.2077    2.8274    0.9342 N   0  0  0  0  0  0  0  0  0  0  0  0
   -0.8213    2.3490    1.8130 C   0  0  0  0  0  0  0  0  0  0  0  0
   -0.4783    1.8088    2.8970 O   0  0  0  0  0  0  0  0  0  0  0  0
   -2.2853    2.6392    1.5308 C   0  0  2  0  0  0  0  0  0  0  0  0
   -2.6474    4.0710    1.9767 C   0  0  0  0  0  0  0  0  0  0  0  0
   -2.9284    4.1265    3.4475 C   0  0  0  0  0  0  0  0  0  0  0  0
   -2.4467    5.0088    4.1414 O   0  0  0  0  0  0  0  0  0  0  0  0
   -3.8665    3.1193    4.0341 C   0  0  0  0  0  0  0  0  0  0  0  0
   -3.4218    1.7183    3.6217 C   0  0  0  0  0  0  0  0  0  0  0  0
   -3.1950    1.6423    2.1591 N   0  0  0  0  0  0  0  0  0  0  0  0
   -3.9493    0.6654    1.3866 C   0  0  0  0  0  0  0  0  0  0  0  0
   -5.0122    0.1889    1.8737 O   0  0  0  0  0  0  0  0  0  0  0  0
   -3.4787    0.1193    0.0468 C   0  0  2  0  0  0  0  0  0  0  0  0
   -4.6684   -0.2754   -0.8608 C   0  0  0  0  0  0  0  0  0  0  0  0
   -4.2048   -0.6482   -2.2458 C   0  0  0  0  0  0  0  0  0  0  0  0
   -3.9215    0.3557   -3.1868 C   0  0  0  0  0  0  0  0  0  0  0  0
   -3.4233    0.0189   -4.4485 C   0  0  0  0  0  0  0  0  0  0  0  0
   -3.2035   -1.3209   -4.7794 C   0  0  0  0  0  0  0  0  0  0  0  0
   -3.4816   -2.3258   -3.8486 C   0  0  0  0  0  0  0  0  0  0  0  0
   -3.9792   -1.9929   -2.5851 C   0  0  0  0  0  0  0  0  0  0  0  0
   -2.5375   -1.0063    0.2331 N   0  0  0  0  0  0  0  0  0  0  0  0
   -1.3496   -1.0726   -0.6150 C   0  0  0  0  0  0  0  0  0  0  0  0
   -2.8533   -2.1402    1.0729 C   0  0  0  0  0  0  0  0  0  0  0  0
   -3.9811   -2.6912    0.9674 O   0  0  0  0  0  0  0  0  0  0  0  0
   -0.5951    3.4727   -1.2957 C   0  0  0  0  0  0  0  0  0  0  0  0
   -1.3850    3.0066   -2.3618 C   0  0  0  0  0  0  0  0  0  0  0  0
   -2.1588    3.8976   -3.1106 C   0  0  0  0  0  0  0  0  0  0  0  0
   -2.1421    5.2620   -2.8114 C   0  0  0  0  0  0  0  0  0  0  0  0
   -1.3446    5.7391   -1.7682 C   0  0  0  0  0  0  0  0  0  0  0  0
   -0.5676    4.8521   -1.0174 C   0  0  0  0  0  0  0  0  0  0  0  0
   -2.2948   -3.6178    2.5417 H   0  0  0  0  0  0  0  0  0  0  0  0
   -2.6227   -1.8893    4.1023 H   0  0  0  0  0  0  0  0  0  0  0  0
   -1.9992   -0.6214    2.9677 H   0  0  0  0  0  0  0  0  0  0  0  0
   -0.0815   -0.8044    4.2723 H   0  0  0  0  0  0  0  0  0  0  0  0
   -0.4293   -2.5352    4.6896 H   0  0  0  0  0  0  0  0  0  0  0  0
    0.9356   -1.4023    2.2508 H   0  0  0  0  0  0  0  0  0  0  0  0
    1.1196   -3.0246    3.0623 H   0  0  0  0  0  0  0  0  0  0  0  0
    1.9973   -3.4795    1.0149 H   0  0  0  0  0  0  0  0  0  0  0  0
    1.0465   -5.7572   -0.7937 H   0  0  0  0  0  0  0  0  0  0  0  0
    2.7510   -5.3112   -0.4612 H   0  0  0  0  0  0  0  0  0  0  0  0
    2.0573   -7.1725    0.9946 H   0  0  0  0  0  0  0  0  0  0  0  0
    2.4003   -5.7089    1.9911 H   0  0  0  0  0  0  0  0  0  0  0  0
    0.6905   -6.2043    1.6575 H   0  0  0  0  0  0  0  0  0  0  0  0
    1.0553   -3.4432   -1.8670 H   0  0  0  0  0  0  0  0  0  0  0  0
    2.8050   -1.5801    0.8532 H   0  0  0  0  0  0  0  0  0  0  0  0
    4.8873   -1.6653   -0.0061 H   0  0  0  0  0  0  0  0  0  0  0  0
    8.2586   -0.3600   -4.6543 H   0  0  0  0  0  0  0  0  0  0  0  0
    9.9538   -0.0733   -2.8613 H   0  0  0  0  0  0  0  0  0  0  0  0
    9.2189    0.0722   -0.5018 H   0  0  0  0  0  0  0  0  0  0  0  0
    7.3687    0.1213    1.1074 H   0  0  0  0  0  0  0  0  0  0  0  0
    1.3654    0.3707    0.6789 H   0  0  0  0  0  0  0  0  0  0  0  0
    2.9235    1.9649    1.7662 H   0  0  0  0  0  0  0  0  0  0  0  0
    3.2050    0.2850    2.3385 H   0  0  0  0  0  0  0  0  0  0  0  0
    4.3320    1.0428    1.1418 H   0  0  0  0  0  0  0  0  0  0  0  0
   -0.1827    1.4834   -0.6223 H   0  0  0  0  0  0  0  0  0  0  0  0
    1.0388    3.2868    1.3697 H   0  0  0  0  0  0  0  0  0  0  0  0
   -2.4266    2.6584    0.4413 H   0  0  0  0  0  0  0  0  0  0  0  0
   -1.8373    4.7841    1.7068 H   0  0  0  0  0  0  0  0  0  0  0  0
   -3.5663    4.3956    1.4415 H   0  0  0  0  0  0  0  0  0  0  0  0
   -3.8811    3.1962    5.1432 H   0  0  0  0  0  0  0  0  0  0  0  0
   -4.8919    3.3119    3.6516 H   0  0  0  0  0  0  0  0  0  0  0  0
   -2.4938    1.4575    4.1683 H   0  0  0  0  0  0  0  0  0  0  0  0
   -4.1860    0.9896    3.9648 H   0  0  0  0  0  0  0  0  0  0  0  0
   -2.9687    0.9251   -0.5051 H   0  0  0  0  0  0  0  0  0  0  0  0
   -5.2575   -1.1052   -0.4190 H   0  0  0  0  0  0  0  0  0  0  0  0
   -5.3648    0.5888   -0.9401 H   0  0  0  0  0  0  0  0  0  0  0  0
   -4.0762    1.3980   -2.9375 H   0  0  0  0  0  0  0  0  0  0  0  0
   -3.2021    0.7973   -5.1673 H   0  0  0  0  0  0  0  0  0  0  0  0
   -2.8148   -1.5803   -5.7556 H   0  0  0  0  0  0  0  0  0  0  0  0
   -3.3054   -3.3627   -4.1039 H   0  0  0  0  0  0  0  0  0  0  0  0
   -4.1744   -2.7804   -1.8683 H   0  0  0  0  0  0  0  0  0  0  0  0
   -1.2963   -2.0580   -1.1198 H   0  0  0  0  0  0  0  0  0  0  0  0
   -0.4535   -0.8995    0.0051 H   0  0  0  0  0  0  0  0  0  0  0  0
   -1.3751   -0.3141   -1.4232 H   0  0  0  0  0  0  0  0  0  0  0  0
   -1.4042    1.9535   -2.6115 H   0  0  0  0  0  0  0  0  0  0  0  0
   -2.7697    3.5302   -3.9250 H   0  0  0  0  0  0  0  0  0  0  0  0
   -2.7422    5.9505   -3.3921 H   0  0  0  0  0  0  0  0  0  0  0  0
   -1.3261    6.7975   -1.5427 H   0  0  0  0  0  0  0  0  0  0  0  0
    0.0511    5.2399   -0.2179 H   0  0  0  0  0  0  0  0  0  0  0  0
  1  2  1  0
  2  3  1  0
  3  4  1  0
  4  5  1  0
  5  6  1  0
  6  7  2  0
  6  8  1  0
  8  9  1  0
  9 10  1  0
  8 11  1  0
 11 12  1  0
 12 13  2  0
 12 14  1  0
 14 15  1  0
 15 16  1  0
 16 17  2  0
 16 18  1  0
 18 19  2  0
 19 20  1  0
 20 21  2  0
 21 22  1  0
 22 23  2  0
 23 24  1  0
 14 25  1  0
 25 26  1  0
 25 27  1  0
 27 28  1  0
 28 29  2  0
 28 30  1  0
 30 31  1  0
 31 32  1  0
 32 33  2  0
 32 34  1  0
 34 35  1  0
 35 36  1  0
 36 37  2  0
 36 38  1  0
 38 39  1  0
 39 40  1  0
 40 41  1  0
 41 42  2  0
 41 43  1  0
 43 44  1  0
 44 45  1  0
 45 46  2  0
 46 47  1  0
 47 48  2  0
 48 49  1  0
 49 50  2  0
 43 51  1  0
 51 52  1  0
 51 53  1  0
 53 54  2  0
 30 55  1  0
 55 56  2  0
 56 57  1  0
 57 58  2  0
 58 59  1  0
 59 60  2  0
  5  1  1  0
 23 18  1  0
 40 34  1  0
 50 45  1  0
 60 55  1  0
 53  1  1  0
  1 61  1  1
  2 62  1  0
  2 63  1  0
  3 64  1  0
  3 65  1  0
  4 66  1  0
  4 67  1  0
  8 68  1  1
  9 69  1  0
  9 70  1  0
 10 71  1  0
 10 72  1  0
 10 73  1  0
 11 74  1  0
 14 75  1  1
 15 76  1  0
 20 77  1  0
 21 78  1  0
 22 79  1  0
 24 80  1  0
 25 81  1  1
 26 82  1  0
 26 83  1  0
 26 84  1  0
 30 85  1  1
 31 86  1  0
 34 87  1  6
 35 88  1  0
 35 89  1  0
 38 90  1  0
 38 91  1  0
 39 92  1  0
 39 93  1  0
 43 94  1  6
 44 95  1  0
 44 96  1  0
 46 97  1  0
 47 98  1  0
 48 99  1  0
 49100  1  0
 50101  1  0
 52102  1  0
 52103  1  0
 52104  1  0
 56105  1  0
 57106  1  0
 58107  1  0
 59108  1  0
 60109  1  0
M  END
$$$$
