
     RDKit          3D

 16 15  0  0  0  0  0  0  0  0999 V2000
    2.7016    0.4640    0.1774 C   0  0  0  0  0  0  0  0  0  0  0  0
    1.4785   -0.2347   -0.3332 C   0  0  0  0  0  0  0  0  0  0  0  0
    1.6011   -1.0889   -1.1993 O   0  0  0  0  0  0  0  0  0  0  0  0
    0.1194    0.1205    0.2216 C   0  0  0  0  0  0  0  0  0  0  0  0
   -1.0188   -0.6910   -0.4103 C   0  0  0  0  0  0  0  0  0  0  0  0
   -2.3353   -0.2902    0.1763 C   0  0  0  0  0  0  0  0  0  0  0  0
   -3.0491    0.7662   -0.3808 O   0  0  0  0  0  0  0  0  0  0  0  0
   -2.7784   -0.8814    1.1971 O   0  0  0  0  0  0  0  0  0  0  0  0
    3.2081    0.9879   -0.6600 H   0  0  0  0  0  0  0  0  0  0  0  0
    3.3986   -0.2794    0.6177 H   0  0  0  0  0  0  0  0  0  0  0  0
    2.4359    1.2096    0.9566 H   0  0  0  0  0  0  0  0  0  0  0  0
   -0.0608    1.2036    0.0451 H   0  0  0  0  0  0  0  0  0  0  0  0
    0.1300   -0.0565    1.3193 H   0  0  0  0  0  0  0  0  0  0  0  0
   -0.8525   -1.7766   -0.2345 H   0  0  0  0  0  0  0  0  0  0  0  0
   -1.0440   -0.5138   -1.5075 H   0  0  0  0  0  0  0  0  0  0  0  0
   -3.9342    1.0605    0.0144 H   0  0  0  0  0  0  0  0  0  0  0  0
  1  2  1  0
  2  3  2  0
  2  4  1  0
  4  5  1  0
  5  6  1  0
  6  7  1  0
  6  8  2  0
  1  9  1  0
  1 10  1  0
  1 11  1  0
  4 12  1  0
  4 13  1  0
  5 14  1  0
  5 15  1  0
  7 16  1  0
M  END
$$$$
