
     RDKit          3D

 45 47  0  0  0  0  0  0  0  0999 V2000
    3.6481   -2.7328   -0.9790 C   0  0  0  0  0  0  0  0  0  0  0  0
    2.6697   -2.5534    0.1810 C   0  0  0  0  0  0  0  0  0  0  0  0
    3.0686   -1.3972    1.1072 C   0  0  0  0  0  0  0  0  0  0  0  0
    2.9331   -0.0684    0.4266 C   0  0  0  0  0  0  0  0  0  0  0  0
    3.9654    0.6465   -0.0877 N   0  0  0  0  0  0  0  0  0  0  0  0
    3.4633    1.7332   -0.6717 N   0  0  0  0  0  0  0  0  0  0  0  0
    4.2719    2.7343   -1.3566 C   0  0  0  0  0  0  0  0  0  0  0  0
    2.1207    1.7088   -0.5463 C   0  0  0  0  0  0  0  0  0  0  0  0
    1.7652    0.5962    0.1334 C   0  0  0  0  0  0  0  0  0  0  0  0
    0.4781    0.2727    0.3865 N   0  0  0  0  0  0  0  0  0  0  0  0
   -0.5074    1.1146   -0.0556 C   0  0  0  0  0  0  0  0  0  0  0  0
   -0.1703    2.2572   -0.7539 N   0  0  0  0  0  0  0  0  0  0  0  0
    1.1365    2.5738   -1.0133 C   0  0  0  0  0  0  0  0  0  0  0  0
    1.4284    3.6138   -1.6618 O   0  0  0  0  0  0  0  0  0  0  0  0
   -1.9243    0.7696    0.2180 C   0  0  0  0  0  0  0  0  0  0  0  0
   -2.3503   -0.5110    0.5790 C   0  0  0  0  0  0  0  0  0  0  0  0
   -1.5133   -1.6247    0.7015 O   0  0  0  0  0  0  0  0  0  0  0  0
   -1.9839   -2.9080    1.0963 C   0  0  0  0  0  0  0  0  0  0  0  0
   -0.8206   -3.8861    1.1303 C   0  0  0  0  0  0  0  0  0  0  0  0
   -4.0178   -0.5038    0.8300 S   0  0  0  0  0  0  0  0  0  0  0  0
   -4.2153    1.1284    0.4885 C   0  0  0  0  0  0  0  0  0  0  0  0
   -2.9868    1.6917    0.1719 C   0  0  0  0  0  0  0  0  0  0  0  0
   -5.7442    1.9845    0.5306 S   0  0  0  0  0  6  0  0  0  0  0  0
   -5.4938    3.5859    1.1327 N   0  0  0  0  0  0  0  0  0  0  0  0
   -6.3204    2.0499   -0.8554 O   0  0  0  0  0  0  0  0  0  0  0  0
   -6.7008    1.2616    1.4370 O   0  0  0  0  0  0  0  0  0  0  0  0
    3.6411   -1.8383   -1.6369 H   0  0  0  0  0  0  0  0  0  0  0  0
    3.3477   -3.6146   -1.5832 H   0  0  0  0  0  0  0  0  0  0  0  0
    4.6769   -2.8994   -0.5949 H   0  0  0  0  0  0  0  0  0  0  0  0
    2.6480   -3.4930    0.7742 H   0  0  0  0  0  0  0  0  0  0  0  0
    1.6471   -2.3837   -0.2208 H   0  0  0  0  0  0  0  0  0  0  0  0
    4.1135   -1.5343    1.4607 H   0  0  0  0  0  0  0  0  0  0  0  0
    2.4078   -1.4082    2.0005 H   0  0  0  0  0  0  0  0  0  0  0  0
    4.0086    2.7549   -2.4349 H   0  0  0  0  0  0  0  0  0  0  0  0
    5.3505    2.4895   -1.2559 H   0  0  0  0  0  0  0  0  0  0  0  0
    4.0906    3.7342   -0.9095 H   0  0  0  0  0  0  0  0  0  0  0  0
   -0.9126    2.8917   -1.1223 H   0  0  0  0  0  0  0  0  0  0  0  0
   -2.7460   -3.2688    0.3720 H   0  0  0  0  0  0  0  0  0  0  0  0
   -2.4399   -2.8451    2.1081 H   0  0  0  0  0  0  0  0  0  0  0  0
   -0.0439   -3.5280    1.8392 H   0  0  0  0  0  0  0  0  0  0  0  0
   -1.1788   -4.8839    1.4601 H   0  0  0  0  0  0  0  0  0  0  0  0
   -0.3748   -3.9800    0.1176 H   0  0  0  0  0  0  0  0  0  0  0  0
   -2.8761    2.7418   -0.0595 H   0  0  0  0  0  0  0  0  0  0  0  0
   -5.1259    3.4923    2.1059 H   0  0  0  0  0  0  0  0  0  0  0  0
   -6.4338    4.0352    1.2070 H   0  0  0  0  0  0  0  0  0  0  0  0
  1  2  1  0
  2  3  1  0
  3  4  1  0
  4  5  2  0
  5  6  1  0
  6  7  1  0
  6  8  1  0
  8  9  2  0
  9 10  1  0
 10 11  2  0
 11 12  1  0
 12 13  1  0
 13 14  2  0
 11 15  1  0
 15 16  2  0
 16 17  1  0
 17 18  1  0
 18 19  1  0
 16 20  1  0
 20 21  1  0
 21 22  2  0
 21 23  1  0
 23 24  1  0
 23 25  2  0
 23 26  2  0
  9  4  1  0
 22 15  1  0
 13  8  1  0
  1 27  1  0
  1 28  1  0
  1 29  1  0
  2 30  1  0
  2 31  1  0
  3 32  1  0
  3 33  1  0
  7 34  1  0
  7 35  1  0
  7 36  1  0
 12 37  1  0
 18 38  1  0
 18 39  1  0
 19 40  1  0
 19 41  1  0
 19 42  1  0
 22 43  1  0
 24 44  1  0
 24 45  1  0
M  END
$$$$
