
     RDKit          3D

112118  0  0  0  0  0  0  0  0999 V2000
    2.2150    2.5029   -0.7334 C   0  0  0  0  0  0  0  0  0  0  0  0
    1.5459    1.8307    0.4674 C   0  0  0  0  0  0  0  0  0  0  0  0
    0.2122    1.1247    0.0935 C   0  0  2  0  0  0  0  0  0  0  0  0
   -0.6848    0.9754    1.3416 C   0  0  2  0  0  0  0  0  0  0  0  0
   -0.3832   -0.4201    1.8673 C   0  0  0  0  0  0  0  0  0  0  0  0
   -0.0000   -1.1913    0.6950 N   0  0  0  0  0  0  0  0  0  0  0  0
    0.3296   -0.3310   -0.4367 C   0  0  2  0  0  0  0  0  0  0  0  0
    1.6626   -0.7035   -1.0407 C   0  0  0  0  0  0  0  0  0  0  0  0
    1.8334   -0.5547   -2.2813 O   0  0  0  0  0  0  0  0  0  0  0  0
    2.7292   -1.2140   -0.2246 N   0  0  0  0  0  0  0  0  0  0  0  0
    4.0705   -1.4391   -0.7545 C   0  0  2  0  0  0  0  0  0  0  0  0
    4.1759   -2.5311   -1.8177 C   0  0  0  0  0  0  0  0  0  0  0  0
    4.6662   -2.8029   -0.3947 C   0  0  1  0  0  0  0  0  0  0  0  0
    6.1901   -2.9645   -0.2444 C   0  0  0  0  0  0  0  0  0  0  0  0
    6.9184   -2.2200   -1.1575 F   0  0  0  0  0  0  0  0  0  0  0  0
    6.5634   -2.6034    1.0362 F   0  0  0  0  0  0  0  0  0  0  0  0
    4.9743   -0.2449   -0.8400 C   0  0  0  0  0  0  0  0  0  0  0  0
    5.1407    0.3359   -1.9459 O   0  0  0  0  0  0  0  0  0  0  0  0
    5.6120    0.2480    0.3422 N   0  0  0  0  0  0  0  0  0  0  0  0
    6.9003    1.4040    0.2824 S   0  0  0  0  0  6  0  0  0  0  0  0
    7.7413    1.1598   -0.9405 O   0  0  0  0  0  0  0  0  0  0  0  0
    7.7649    1.2304    1.4989 O   0  0  0  0  0  0  0  0  0  0  0  0
    6.2189    3.0602    0.2845 C   0  0  0  0  0  0  0  0  0  0  0  0
    5.3472    3.4747    1.4700 C   0  0  0  0  0  0  0  0  0  0  0  0
    5.8974    3.6662   -1.0731 C   0  0  0  0  0  0  0  0  0  0  0  0
    7.1207    4.1407   -0.2924 C   0  0  0  0  0  0  0  0  0  0  0  0
   -0.1780   -2.6181    0.5761 C   0  0  0  0  0  0  0  0  0  0  0  0
   -0.1813   -3.1421   -0.5702 O   0  0  0  0  0  0  0  0  0  0  0  0
   -0.3940   -3.4779    1.8107 C   0  0  1  0  0  0  0  0  0  0  0  0
   -1.8008   -3.4449    2.2413 N   0  0  0  0  0  0  0  0  0  0  0  0
   -2.9447   -3.5872    1.3847 C   0  0  0  0  0  0  0  0  0  0  0  0
   -4.0946   -3.3755    1.8576 O   0  0  0  0  0  0  0  0  0  0  0  0
   -2.7986   -3.9764    0.0507 O   0  0  0  0  0  0  0  0  0  0  0  0
   -3.9179   -4.2382   -0.7888 C   0  0  2  0  0  0  0  0  0  0  0  0
   -3.5033   -4.7587   -2.1564 C   0  0  0  0  0  0  0  0  0  0  0  0
   -4.0031   -3.3286   -2.0039 C   0  0  1  0  0  0  0  0  0  0  0  0
   -5.4297   -3.0741   -2.5216 C   0  0  0  0  0  0  0  0  0  0  0  0
   -5.9889   -1.7621   -1.9529 C   0  0  0  0  0  0  0  0  0  0  0  0
   -5.4203   -0.5298   -2.6851 C   0  0  0  0  0  0  0  0  0  0  0  0
   -5.4104    0.7519   -1.8292 C   0  0  0  0  0  0  0  0  0  0  0  0
   -4.4522    0.6850   -0.6113 C   0  0  0  0  0  0  0  0  0  0  0  0
   -3.3842   -0.1459   -0.9161 F   0  0  0  0  0  0  0  0  0  0  0  0
   -5.1238    0.1552    0.4767 F   0  0  0  0  0  0  0  0  0  0  0  0
   -3.9200    2.0460   -0.2075 C   0  0  0  0  0  0  0  0  0  0  0  0
   -2.7350    2.1603    0.5461 C   0  0  0  0  0  0  0  0  0  0  0  0
   -2.0560    1.0075    0.9504 O   0  0  0  0  0  0  0  0  0  0  0  0
   -2.2629    3.3940    0.8747 N   0  0  0  0  0  0  0  0  0  0  0  0
   -2.9299    4.5216    0.5188 C   0  0  0  0  0  0  0  0  0  0  0  0
   -2.4338    5.7822    0.8652 C   0  0  0  0  0  0  0  0  0  0  0  0
   -3.1346    6.9414    0.5056 C   0  0  0  0  0  0  0  0  0  0  0  0
   -2.5978    8.1839    0.8743 O   0  0  0  0  0  0  0  0  0  0  0  0
   -3.1993    9.4397    0.5766 C   0  0  0  0  0  0  0  0  0  0  0  0
   -4.3457    6.8235   -0.2080 C   0  0  0  0  0  0  0  0  0  0  0  0
   -4.8426    5.5627   -0.5555 C   0  0  0  0  0  0  0  0  0  0  0  0
   -4.1375    4.4114   -0.1953 C   0  0  0  0  0  0  0  0  0  0  0  0
   -4.6008    3.1804   -0.5350 N   0  0  0  0  0  0  0  0  0  0  0  0
    0.1893   -4.9396    1.7637 C   0  0  0  0  0  0  0  0  0  0  0  0
    1.6702   -4.9054    1.3215 C   0  0  0  0  0  0  0  0  0  0  0  0
    0.1361   -5.5434    3.1868 C   0  0  0  0  0  0  0  0  0  0  0  0
   -0.5918   -5.8827    0.8209 C   0  0  0  0  0  0  0  0  0  0  0  0
    1.5065    3.1938   -1.2375 H   0  0  0  0  0  0  0  0  0  0  0  0
    3.0817    3.0972   -0.3843 H   0  0  0  0  0  0  0  0  0  0  0  0
    2.5843    1.7611   -1.4654 H   0  0  0  0  0  0  0  0  0  0  0  0
    1.3431    2.6430    1.1988 H   0  0  0  0  0  0  0  0  0  0  0  0
    2.2510    1.1296    0.9598 H   0  0  0  0  0  0  0  0  0  0  0  0
   -0.3112    1.7494   -0.6646 H   0  0  0  0  0  0  0  0  0  0  0  0
   -0.5025    1.7375    2.1314 H   0  0  0  0  0  0  0  0  0  0  0  0
    0.4638   -0.3950    2.5864 H   0  0  0  0  0  0  0  0  0  0  0  0
   -1.2818   -0.8470    2.3611 H   0  0  0  0  0  0  0  0  0  0  0  0
   -0.4552   -0.4764   -1.2136 H   0  0  0  0  0  0  0  0  0  0  0  0
    2.5887   -1.3198    0.8051 H   0  0  0  0  0  0  0  0  0  0  0  0
    4.9555   -2.3612   -2.5899 H   0  0  0  0  0  0  0  0  0  0  0  0
    3.2194   -3.0399   -2.0639 H   0  0  0  0  0  0  0  0  0  0  0  0
    4.0099   -3.4831    0.1865 H   0  0  0  0  0  0  0  0  0  0  0  0
    6.4431   -4.0348   -0.3923 H   0  0  0  0  0  0  0  0  0  0  0  0
    5.3489   -0.1514    1.2704 H   0  0  0  0  0  0  0  0  0  0  0  0
    5.9637    3.4879    2.3927 H   0  0  0  0  0  0  0  0  0  0  0  0
    4.9018    4.4823    1.3247 H   0  0  0  0  0  0  0  0  0  0  0  0
    4.5267    2.7393    1.6024 H   0  0  0  0  0  0  0  0  0  0  0  0
    6.1502    3.0466   -1.9589 H   0  0  0  0  0  0  0  0  0  0  0  0
    5.0767    4.4141   -1.0967 H   0  0  0  0  0  0  0  0  0  0  0  0
    7.0018    5.1569    0.1408 H   0  0  0  0  0  0  0  0  0  0  0  0
    8.0837    3.7981   -0.7262 H   0  0  0  0  0  0  0  0  0  0  0  0
    0.1914   -2.9690    2.6094 H   0  0  0  0  0  0  0  0  0  0  0  0
   -1.9853   -3.2168    3.2449 H   0  0  0  0  0  0  0  0  0  0  0  0
   -4.8196   -4.7331   -0.3662 H   0  0  0  0  0  0  0  0  0  0  0  0
   -2.4060   -4.8459   -2.3080 H   0  0  0  0  0  0  0  0  0  0  0  0
   -4.2228   -5.4747   -2.6082 H   0  0  0  0  0  0  0  0  0  0  0  0
   -3.2116   -2.5556   -2.1021 H   0  0  0  0  0  0  0  0  0  0  0  0
   -6.1122   -3.9046   -2.2336 H   0  0  0  0  0  0  0  0  0  0  0  0
   -5.4147   -3.0323   -3.6322 H   0  0  0  0  0  0  0  0  0  0  0  0
   -5.7775   -1.7336   -0.8652 H   0  0  0  0  0  0  0  0  0  0  0  0
   -7.0950   -1.7596   -2.0652 H   0  0  0  0  0  0  0  0  0  0  0  0
   -6.0410   -0.3448   -3.5891 H   0  0  0  0  0  0  0  0  0  0  0  0
   -4.3909   -0.7210   -3.0569 H   0  0  0  0  0  0  0  0  0  0  0  0
   -5.0937    1.5760   -2.5058 H   0  0  0  0  0  0  0  0  0  0  0  0
   -6.4425    0.9840   -1.4866 H   0  0  0  0  0  0  0  0  0  0  0  0
   -1.5043    5.8650    1.4156 H   0  0  0  0  0  0  0  0  0  0  0  0
   -2.5635   10.2520    0.9843 H   0  0  0  0  0  0  0  0  0  0  0  0
   -3.2834    9.5717   -0.5229 H   0  0  0  0  0  0  0  0  0  0  0  0
   -4.2030    9.5034    1.0474 H   0  0  0  0  0  0  0  0  0  0  0  0
   -4.9090    7.6995   -0.4992 H   0  0  0  0  0  0  0  0  0  0  0  0
   -5.7721    5.4841   -1.1058 H   0  0  0  0  0  0  0  0  0  0  0  0
    2.2532   -4.2052    1.9581 H   0  0  0  0  0  0  0  0  0  0  0  0
    2.1313   -5.9135    1.4041 H   0  0  0  0  0  0  0  0  0  0  0  0
    1.7671   -4.5824    0.2644 H   0  0  0  0  0  0  0  0  0  0  0  0
    0.5691   -6.5673    3.1998 H   0  0  0  0  0  0  0  0  0  0  0  0
   -0.9119   -5.6132    3.5494 H   0  0  0  0  0  0  0  0  0  0  0  0
    0.7119   -4.9190    3.9038 H   0  0  0  0  0  0  0  0  0  0  0  0
   -0.6001   -5.5144   -0.2232 H   0  0  0  0  0  0  0  0  0  0  0  0
   -0.1211   -6.8896    0.8076 H   0  0  0  0  0  0  0  0  0  0  0  0
   -1.6370   -6.0180    1.1677 H   0  0  0  0  0  0  0  0  0  0  0  0
  1  2  1  0
  2  3  1  0
  3  4  1  0
  4  5  1  0
  5  6  1  0
  6  7  1  0
  7  8  1  0
  8  9  2  0
  8 10  1  0
 11 10  1  1
 11 12  1  0
 12 13  1  0
 13 14  1  0
 14 15  1  0
 14 16  1  0
 11 17  1  0
 17 18  2  0
 17 19  1  0
 19 20  1  0
 20 21  2  0
 20 22  2  0
 20 23  1  0
 23 24  1  0
 23 25  1  0
 25 26  1  0
  6 27  1  0
 27 28  2  0
 27 29  1  0
 29 30  1  0
 30 31  1  0
 31 32  2  0
 31 33  1  0
 33 34  1  0
 34 35  1  0
 35 36  1  0
 36 37  1  0
 37 38  1  0
 38 39  1  0
 39 40  1  0
 40 41  1  0
 41 42  1  0
 41 43  1  0
 41 44  1  0
 44 45  2  0
 45 46  1  0
 45 47  1  0
 47 48  2  0
 48 49  1  0
 49 50  2  0
 50 51  1  0
 51 52  1  0
 50 53  1  0
 53 54  2  0
 54 55  1  0
 55 56  2  0
 29 57  1  0
 57 58  1  0
 57 59  1  0
 57 60  1  0
  7  3  1  0
 13 11  1  0
 26 23  1  0
 36 34  1  0
 56 44  1  0
 46  4  1  0
 55 48  1  0
  1 61  1  0
  1 62  1  0
  1 63  1  0
  2 64  1  0
  2 65  1  0
  3 66  1  6
  4 67  1  1
  5 68  1  0
  5 69  1  0
  7 70  1  6
 10 71  1  0
 12 72  1  0
 12 73  1  0
 13 74  1  1
 14 75  1  0
 19 76  1  0
 24 77  1  0
 24 78  1  0
 24 79  1  0
 25 80  1  0
 25 81  1  0
 26 82  1  0
 26 83  1  0
 29 84  1  1
 30 85  1  0
 34 86  1  1
 35 87  1  0
 35 88  1  0
 36 89  1  1
 37 90  1  0
 37 91  1  0
 38 92  1  0
 38 93  1  0
 39 94  1  0
 39 95  1  0
 40 96  1  0
 40 97  1  0
 49 98  1  0
 52 99  1  0
 52100  1  0
 52101  1  0
 53102  1  0
 54103  1  0
 58104  1  0
 58105  1  0
 58106  1  0
 59107  1  0
 59108  1  0
 59109  1  0
 60110  1  0
 60111  1  0
 60112  1  0
M  END
$$$$
