
     RDKit          3D

 60 63  0  0  0  0  0  0  0  0999 V2000
    2.6828    0.2267   -0.1791 C   0  0  1  0  0  0  0  0  0  0  0  0
    3.1315    1.2968   -1.2078 C   0  0  0  0  0  0  0  0  0  0  0  0
    4.2746    2.2021   -0.7200 C   0  0  0  0  0  0  0  0  0  0  0  0
    5.4899    1.4337   -0.4538 N   0  0  0  0  0  0  0  0  0  0  0  0
    5.9816    0.9978    0.8163 C   0  0  0  0  0  0  0  0  0  0  0  0
    5.5050    1.3563    1.9253 O   0  0  0  0  0  0  0  0  0  0  0  0
    7.1041    0.0857    0.6282 C   0  0  0  0  0  0  0  0  0  0  0  0
    7.8945   -0.5883    1.5573 C   0  0  0  0  0  0  0  0  0  0  0  0
    8.9182   -1.4216    1.0718 C   0  0  0  0  0  0  0  0  0  0  0  0
    9.1272   -1.5638   -0.3174 C   0  0  0  0  0  0  0  0  0  0  0  0
    8.3146   -0.8741   -1.2351 C   0  0  0  0  0  0  0  0  0  0  0  0
    7.3084   -0.0532   -0.7292 C   0  0  0  0  0  0  0  0  0  0  0  0
    6.3166    0.7694   -1.4126 C   0  0  0  0  0  0  0  0  0  0  0  0
    6.1902    0.8839   -2.6605 O   0  0  0  0  0  0  0  0  0  0  0  0
    2.0550    0.8169    1.1070 C   0  0  0  0  0  0  0  0  0  0  0  0
    0.8614    1.7080    0.8477 C   0  0  0  0  0  0  0  0  0  0  0  0
    1.0686    2.9492    0.7555 O   0  0  0  0  0  0  0  0  0  0  0  0
   -0.5248    1.1913    0.6585 C   0  0  0  0  0  0  0  0  0  0  0  0
   -1.5086    2.0347    0.1094 C   0  0  0  0  0  0  0  0  0  0  0  0
   -2.8145    1.5790   -0.0879 C   0  0  0  0  0  0  0  0  0  0  0  0
   -3.1735    0.2670    0.2606 C   0  0  0  0  0  0  0  0  0  0  0  0
   -2.1975   -0.5769    0.8148 C   0  0  0  0  0  0  0  0  0  0  0  0
   -0.8914   -0.1216    1.0147 C   0  0  0  0  0  0  0  0  0  0  0  0
   -4.5605   -0.2197    0.0470 C   0  0  0  0  0  0  0  0  0  0  0  0
   -5.6608    0.6110    0.3226 C   0  0  0  0  0  0  0  0  0  0  0  0
   -6.9663    0.1528    0.1220 C   0  0  0  0  0  0  0  0  0  0  0  0
   -7.1965   -1.1504   -0.3581 C   0  0  0  0  0  0  0  0  0  0  0  0
   -8.4850   -1.6640   -0.5806 O   0  0  0  0  0  0  0  0  0  0  0  0
   -9.7097   -1.0060   -0.2554 C   0  0  0  0  0  0  0  0  0  0  0  0
   -9.9757   -1.0689    1.2448 C   0  0  0  0  0  0  0  0  0  0  0  0
   -6.1014   -1.9749   -0.6367 C   0  0  0  0  0  0  0  0  0  0  0  0
   -4.7959   -1.5188   -0.4359 C   0  0  0  0  0  0  0  0  0  0  0  0
    1.7552   -0.7764   -0.8149 C   0  0  0  0  0  0  0  0  0  0  0  0
    1.7873   -2.1023   -0.3942 O   0  0  0  0  0  0  0  0  0  0  0  0
    0.9202   -0.4193   -1.6903 O   0  0  0  0  0  0  0  0  0  0  0  0
    3.5859   -0.3425    0.1299 H   0  0  0  0  0  0  0  0  0  0  0  0
    2.2687    1.9364   -1.4930 H   0  0  0  0  0  0  0  0  0  0  0  0
    3.4680    0.7864   -2.1369 H   0  0  0  0  0  0  0  0  0  0  0  0
    3.9718    2.7695    0.1841 H   0  0  0  0  0  0  0  0  0  0  0  0
    4.4938    2.9515   -1.5104 H   0  0  0  0  0  0  0  0  0  0  0  0
    7.7259   -0.4754    2.6204 H   0  0  0  0  0  0  0  0  0  0  0  0
    9.5493   -1.9583    1.7681 H   0  0  0  0  0  0  0  0  0  0  0  0
    9.9175   -2.2088   -0.6789 H   0  0  0  0  0  0  0  0  0  0  0  0
    8.4664   -0.9792   -2.3015 H   0  0  0  0  0  0  0  0  0  0  0  0
    1.7990    0.0013    1.8120 H   0  0  0  0  0  0  0  0  0  0  0  0
    2.8237    1.4073    1.6470 H   0  0  0  0  0  0  0  0  0  0  0  0
   -1.2668    3.0490   -0.1829 H   0  0  0  0  0  0  0  0  0  0  0  0
   -3.5393    2.2490   -0.5332 H   0  0  0  0  0  0  0  0  0  0  0  0
   -2.4484   -1.5874    1.1122 H   0  0  0  0  0  0  0  0  0  0  0  0
   -0.1841   -0.8091    1.4519 H   0  0  0  0  0  0  0  0  0  0  0  0
   -5.5127    1.6114    0.7098 H   0  0  0  0  0  0  0  0  0  0  0  0
   -7.7842    0.8225    0.3448 H   0  0  0  0  0  0  0  0  0  0  0  0
  -10.5363   -1.5310   -0.7787 H   0  0  0  0  0  0  0  0  0  0  0  0
   -9.7043    0.0443   -0.6161 H   0  0  0  0  0  0  0  0  0  0  0  0
   -9.1809   -0.5386    1.8082 H   0  0  0  0  0  0  0  0  0  0  0  0
  -10.9518   -0.5905    1.4706 H   0  0  0  0  0  0  0  0  0  0  0  0
  -10.0089   -2.1277    1.5780 H   0  0  0  0  0  0  0  0  0  0  0  0
   -6.2636   -2.9771   -1.0131 H   0  0  0  0  0  0  0  0  0  0  0  0
   -3.9700   -2.1767   -0.6756 H   0  0  0  0  0  0  0  0  0  0  0  0
    1.1563   -2.7883   -0.7908 H   0  0  0  0  0  0  0  0  0  0  0  0
  1  2  1  0
  2  3  1  0
  3  4  1  0
  4  5  1  0
  5  6  2  0
  5  7  1  0
  7  8  2  0
  8  9  1  0
  9 10  2  0
 10 11  1  0
 11 12  2  0
 12 13  1  0
 13 14  2  0
  1 15  1  0
 15 16  1  0
 16 17  2  0
 16 18  1  0
 18 19  2  0
 19 20  1  0
 20 21  2  0
 21 22  1  0
 22 23  2  0
 21 24  1  0
 24 25  2  0
 25 26  1  0
 26 27  2  0
 27 28  1  0
 28 29  1  0
 29 30  1  0
 27 31  1  0
 31 32  2  0
  1 33  1  0
 33 34  1  0
 33 35  2  0
 13  4  1  0
 23 18  1  0
 32 24  1  0
 12  7  1  0
  1 36  1  1
  2 37  1  0
  2 38  1  0
  3 39  1  0
  3 40  1  0
  8 41  1  0
  9 42  1  0
 10 43  1  0
 11 44  1  0
 15 45  1  0
 15 46  1  0
 19 47  1  0
 20 48  1  0
 22 49  1  0
 23 50  1  0
 25 51  1  0
 26 52  1  0
 29 53  1  0
 29 54  1  0
 30 55  1  0
 30 56  1  0
 30 57  1  0
 31 58  1  0
 32 59  1  0
 34 60  1  0
M  END
$$$$
