
     RDKit          3D

 23 23  0  0  0  0  0  0  0  0999 V2000
    4.5864    1.0423   -0.1888 C   0  0  0  0  0  0  0  0  0  0  0  0
    3.1600    0.8117    0.1778 C   0  0  0  0  0  0  0  0  0  0  0  0
    2.4588    1.7747    0.5903 O   0  0  0  0  0  0  0  0  0  0  0  0
    2.6443   -0.4884    0.1518 O   0  0  0  0  0  0  0  0  0  0  0  0
    1.2963   -0.7684    0.2856 N   0  0  0  0  0  0  0  0  0  0  0  0
    0.2756   -0.0347   -0.4104 C   0  0  0  0  0  0  0  0  0  0  0  0
    0.5960    0.8267   -1.2731 O   0  0  0  0  0  0  0  0  0  0  0  0
   -1.1537   -0.3235   -0.1678 C   0  0  0  0  0  0  0  0  0  0  0  0
   -2.1017    0.7118    0.0231 C   0  0  0  0  0  0  0  0  0  0  0  0
   -1.7335    2.0576    0.0855 O   0  0  0  0  0  0  0  0  0  0  0  0
   -3.4556    0.3912    0.1833 C   0  0  0  0  0  0  0  0  0  0  0  0
   -3.8747   -0.9404    0.1791 C   0  0  0  0  0  0  0  0  0  0  0  0
   -2.9431   -1.9647    0.0105 C   0  0  0  0  0  0  0  0  0  0  0  0
   -1.5910   -1.6603   -0.1638 C   0  0  0  0  0  0  0  0  0  0  0  0
    4.7029    2.0404   -0.6615 H   0  0  0  0  0  0  0  0  0  0  0  0
    4.9227    0.2649   -0.9064 H   0  0  0  0  0  0  0  0  0  0  0  0
    5.2156    0.9929    0.7240 H   0  0  0  0  0  0  0  0  0  0  0  0
    1.0335   -1.6371    0.8010 H   0  0  0  0  0  0  0  0  0  0  0  0
   -0.7713    2.3694    0.0833 H   0  0  0  0  0  0  0  0  0  0  0  0
   -4.1842    1.1792    0.3262 H   0  0  0  0  0  0  0  0  0  0  0  0
   -4.9225   -1.1783    0.3096 H   0  0  0  0  0  0  0  0  0  0  0  0
   -3.2701   -2.9965    0.0045 H   0  0  0  0  0  0  0  0  0  0  0  0
   -0.8908   -2.4707   -0.3239 H   0  0  0  0  0  0  0  0  0  0  0  0
  1  2  1  0
  2  3  2  0
  2  4  1  0
  4  5  1  0
  5  6  1  0
  6  7  2  0
  6  8  1  0
  8  9  2  0
  9 10  1  0
  9 11  1  0
 11 12  2  0
 12 13  1  0
 13 14  2  0
 14  8  1  0
  1 15  1  0
  1 16  1  0
  1 17  1  0
  5 18  1  0
 10 19  1  0
 11 20  1  0
 12 21  1  0
 13 22  1  0
 14 23  1  0
M  END
$$$$
