
     RDKit          3D

 19 17  0  0  0  0  0  0  0  0999 V2000
    0.0000    0.0000    0.0000 Cr  0  0  0  0  0 15  0  0  0  0  0  0
    1.0808   -0.2192    1.3816 O   0  0  0  0  0  0  0  0  0  0  0  0
    0.1690    0.0734    0.3467 C   0  0  0  0  0  0  0  0  0  0  0  0
    0.7647   -0.3983   -1.0117 C   0  0  0  0  0  0  0  0  0  0  0  0
    2.1352    0.1623   -1.2570 C   0  0  0  0  0  0  0  0  0  0  0  0
    3.2537   -0.4873   -0.7501 O   0  0  0  0  0  1  0  0  0  0  0  0
    2.2762    1.2384   -1.8956 O   0  0  0  0  0  0  0  0  0  0  0  0
   -1.1690   -0.6558    0.6496 C   0  0  0  0  0  0  0  0  0  0  0  0
   -2.2474   -0.3887   -0.3616 C   0  0  0  0  0  0  0  0  0  0  0  0
   -3.1025    0.6940   -0.1988 O   0  0  0  0  0  1  0  0  0  0  0  0
   -2.3719   -1.1342   -1.3688 O   0  0  0  0  0  0  0  0  0  0  0  0
   -0.0631    1.5706    0.3502 C   0  0  0  0  0  0  0  0  0  0  0  0
    0.0734    2.2911    1.5311 O   0  0  0  0  0  1  0  0  0  0  0  0
   -0.4419    2.1691   -0.6925 O   0  0  0  0  0  0  0  0  0  0  0  0
    1.2402   -1.1999    1.3847 H   0  0  0  0  0  0  0  0  0  0  0  0
    0.1001   -0.1104   -1.8550 H   0  0  0  0  0  0  0  0  0  0  0  0
    0.8359   -1.5078   -1.0225 H   0  0  0  0  0  0  0  0  0  0  0  0
   -0.9944   -1.7531    0.7018 H   0  0  0  0  0  0  0  0  0  0  0  0
   -1.5388   -0.3443    1.6511 H   0  0  0  0  0  0  0  0  0  0  0  0
  2  3  1  0
  3  4  1  0
  4  5  1  0
  5  6  1  0
  5  7  2  0
  3  8  1  0
  8  9  1  0
  9 10  1  0
  9 11  2  0
  3 12  1  0
 12 13  1  0
 12 14  2  0
  2 15  1  0
  4 16  1  0
  4 17  1  0
  8 18  1  0
  8 19  1  0
M  CHG  4   1   3   6  -1  10  -1  13  -1
M  END
$$$$
