
     RDKit          3D

 40 40  0  0  0  0  0  0  0  0999 V2000
    3.8713   -2.4368    2.3218 C   0  0  0  0  0  0  0  0  0  0  0  0
    3.5700   -1.2908    1.4014 C   0  0  0  0  0  0  0  0  0  0  0  0
    2.3565   -1.2499    0.6994 C   0  0  0  0  0  0  0  0  0  0  0  0
    2.0492   -0.1592   -0.1385 C   0  0  0  0  0  0  0  0  0  0  0  0
    0.8452   -0.0922   -0.8582 O   0  0  0  0  0  0  0  0  0  0  0  0
   -0.1933   -1.0672   -0.7973 C   0  0  0  0  0  0  0  0  0  0  0  0
   -1.3629   -0.6426   -1.6906 C   0  0  0  0  0  0  0  0  0  0  0  0
   -2.0221    0.6873   -1.2448 C   0  0  0  0  0  0  0  0  0  0  0  0
   -3.2941    0.5499   -0.3553 C   0  0  0  0  0  0  0  0  0  0  0  0
   -4.4716   -0.0422   -1.1687 C   0  0  0  0  0  0  0  0  0  0  0  0
   -3.7167    1.9590    0.1144 C   0  0  0  0  0  0  0  0  0  0  0  0
   -2.9976   -0.2948    0.8696 C   0  0  0  0  0  0  0  0  0  0  0  0
   -2.2049    0.2218    1.8920 O   0  0  0  0  0  0  0  0  0  0  0  0
   -3.4182   -1.4811    0.9555 O   0  0  0  0  0  0  0  0  0  0  0  0
    2.9697    0.8994   -0.2598 C   0  0  0  0  0  0  0  0  0  0  0  0
    2.6548    2.0758   -1.1409 C   0  0  0  0  0  0  0  0  0  0  0  0
    4.1725    0.8631    0.4628 C   0  0  0  0  0  0  0  0  0  0  0  0
    4.4676   -0.2212    1.2908 C   0  0  0  0  0  0  0  0  0  0  0  0
    3.4513   -2.2230    3.3268 H   0  0  0  0  0  0  0  0  0  0  0  0
    3.4244   -3.3772    1.9346 H   0  0  0  0  0  0  0  0  0  0  0  0
    4.9677   -2.5908    2.4126 H   0  0  0  0  0  0  0  0  0  0  0  0
    1.6597   -2.0700    0.8105 H   0  0  0  0  0  0  0  0  0  0  0  0
   -0.5340   -1.1925    0.2504 H   0  0  0  0  0  0  0  0  0  0  0  0
    0.1969   -2.0420   -1.1621 H   0  0  0  0  0  0  0  0  0  0  0  0
   -2.0982   -1.4701   -1.7303 H   0  0  0  0  0  0  0  0  0  0  0  0
   -0.9711   -0.5163   -2.7238 H   0  0  0  0  0  0  0  0  0  0  0  0
   -1.2693    1.3189   -0.7230 H   0  0  0  0  0  0  0  0  0  0  0  0
   -2.2984    1.2545   -2.1617 H   0  0  0  0  0  0  0  0  0  0  0  0
   -4.6717    0.5724   -2.0729 H   0  0  0  0  0  0  0  0  0  0  0  0
   -4.2711   -1.0816   -1.4980 H   0  0  0  0  0  0  0  0  0  0  0  0
   -5.3971   -0.0615   -0.5531 H   0  0  0  0  0  0  0  0  0  0  0  0
   -2.8985    2.4555    0.6798 H   0  0  0  0  0  0  0  0  0  0  0  0
   -4.6084    1.9017    0.7762 H   0  0  0  0  0  0  0  0  0  0  0  0
   -3.9692    2.6035   -0.7555 H   0  0  0  0  0  0  0  0  0  0  0  0
   -1.9765   -0.3365    2.7057 H   0  0  0  0  0  0  0  0  0  0  0  0
    1.7559    2.6005   -0.7540 H   0  0  0  0  0  0  0  0  0  0  0  0
    3.4971    2.7991   -1.1755 H   0  0  0  0  0  0  0  0  0  0  0  0
    2.4543    1.7265   -2.1758 H   0  0  0  0  0  0  0  0  0  0  0  0
    4.8834    1.6768    0.3893 H   0  0  0  0  0  0  0  0  0  0  0  0
    5.3975   -0.2260    1.8461 H   0  0  0  0  0  0  0  0  0  0  0  0
  1  2  1  0
  2  3  2  0
  3  4  1  0
  4  5  1  0
  5  6  1  0
  6  7  1  0
  7  8  1  0
  8  9  1  0
  9 10  1  0
  9 11  1  0
  9 12  1  0
 12 13  1  0
 12 14  2  0
  4 15  2  0
 15 16  1  0
 15 17  1  0
 17 18  2  0
 18  2  1  0
  1 19  1  0
  1 20  1  0
  1 21  1  0
  3 22  1  0
  6 23  1  0
  6 24  1  0
  7 25  1  0
  7 26  1  0
  8 27  1  0
  8 28  1  0
 10 29  1  0
 10 30  1  0
 10 31  1  0
 11 32  1  0
 11 33  1  0
 11 34  1  0
 13 35  1  0
 16 36  1  0
 16 37  1  0
 16 38  1  0
 17 39  1  0
 18 40  1  0
M  END
$$$$
