
     RDKit          3D

 77 80  0  0  0  0  0  0  0  0999 V2000
   -3.2587    1.6950   -1.8123 N   0  0  0  0  0  0  0  0  0  0  0  0
   -2.8650    2.9306   -2.4992 C   0  0  2  0  0  0  0  0  0  0  0  0
   -3.7966    3.1304   -3.7242 C   0  0  0  0  0  0  0  0  0  0  0  0
   -3.1615    3.7989   -4.8676 N   0  0  0  0  0  0  0  0  0  0  0  0
   -2.5986    5.1093   -4.5228 C   0  0  0  0  0  0  0  0  0  0  0  0
   -1.0914    4.9688   -4.3191 C   0  0  0  0  0  0  0  0  0  0  0  0
   -0.7288    4.2671   -3.0061 C   0  0  0  0  0  0  0  0  0  0  0  0
   -1.3519    2.8625   -2.8444 C   0  0  1  0  0  0  0  0  0  0  0  0
   -0.6766    2.2021   -1.7709 O   0  0  0  0  0  0  0  0  0  0  0  0
    0.4810    1.4309   -1.9238 C   0  0  0  0  0  0  0  0  0  0  0  0
    0.9948    1.2708   -3.0652 O   0  0  0  0  0  0  0  0  0  0  0  0
    1.0844    0.7888   -0.7384 C   0  0  0  0  0  0  0  0  0  0  0  0
    2.0549   -0.2161   -0.8801 C   0  0  0  0  0  0  0  0  0  0  0  0
    2.6035   -0.8348    0.2467 C   0  0  0  0  0  0  0  0  0  0  0  0
    2.2145   -0.4410    1.5401 C   0  0  0  0  0  0  0  0  0  0  0  0
    1.2412    0.5631    1.6774 C   0  0  0  0  0  0  0  0  0  0  0  0
    0.6761    1.1652    0.5509 C   0  0  0  0  0  0  0  0  0  0  0  0
    2.7806   -1.0960    2.7477 C   0  0  0  0  0  0  0  0  0  0  0  0
    2.1318   -1.0576    3.8288 O   0  0  0  0  0  0  0  0  0  0  0  0
    4.0905   -1.7893    2.7300 C   0  0  0  0  0  0  0  0  0  0  0  0
    4.2554   -3.0301    3.3762 C   0  0  0  0  0  0  0  0  0  0  0  0
    3.1751   -3.6415    4.0128 O   0  0  0  0  0  0  0  0  0  0  0  0
    5.5068   -3.6599    3.3670 C   0  0  0  0  0  0  0  0  0  0  0  0
    6.5922   -3.0644    2.7222 C   0  0  0  0  0  0  0  0  0  0  0  0
    6.4482   -1.8299    2.0826 C   0  0  0  0  0  0  0  0  0  0  0  0
    7.5701   -1.2727    1.4506 O   0  0  0  0  0  0  0  0  0  0  0  0
    7.5664   -0.0319    0.7520 C   0  0  0  0  0  0  0  0  0  0  0  0
    5.1939   -1.1911    2.0951 C   0  0  0  0  0  0  0  0  0  0  0  0
   -4.1006    1.6739   -0.6502 C   0  0  0  0  0  0  0  0  0  0  0  0
   -4.7715    2.6959   -0.3397 O   0  0  0  0  0  0  0  0  0  0  0  0
   -4.2068    0.4478    0.1718 C   0  0  0  0  0  0  0  0  0  0  0  0
   -3.1293   -0.4494    0.2578 C   0  0  0  0  0  0  0  0  0  0  0  0
   -3.2324   -1.6532    0.9908 C   0  0  0  0  0  0  0  0  0  0  0  0
   -2.0523   -2.6233    1.0605 C   0  0  1  0  0  0  0  0  0  0  0  0
   -1.1939   -2.6266   -0.2206 C   0  0  0  0  0  0  0  0  0  0  0  0
   -1.2062   -2.3200    2.3156 C   0  0  0  0  0  0  0  0  0  0  0  0
   -0.1295   -3.3736    2.5776 C   0  0  0  0  0  0  0  0  0  0  0  0
   -4.4286   -1.8967    1.7188 C   0  0  0  0  0  0  0  0  0  0  0  0
   -4.5999   -3.0132    2.5423 O   0  0  0  0  0  0  0  0  0  0  0  0
   -5.4899   -0.9893    1.6404 C   0  0  0  0  0  0  0  0  0  0  0  0
   -5.3841    0.1709    0.8761 C   0  0  0  0  0  0  0  0  0  0  0  0
   -2.9826    0.7841   -2.2457 H   0  0  0  0  0  0  0  0  0  0  0  0
   -3.0184    3.7876   -1.8057 H   0  0  0  0  0  0  0  0  0  0  0  0
   -4.7029    3.6949   -3.4078 H   0  0  0  0  0  0  0  0  0  0  0  0
   -4.1515    2.1371   -4.0780 H   0  0  0  0  0  0  0  0  0  0  0  0
   -3.9019    3.9394   -5.5949 H   0  0  0  0  0  0  0  0  0  0  0  0
   -3.0839    5.5618   -3.6281 H   0  0  0  0  0  0  0  0  0  0  0  0
   -2.7612    5.8138   -5.3693 H   0  0  0  0  0  0  0  0  0  0  0  0
   -0.6368    5.9833   -4.3099 H   0  0  0  0  0  0  0  0  0  0  0  0
   -0.6478    4.4135   -5.1749 H   0  0  0  0  0  0  0  0  0  0  0  0
   -1.0103    4.9139   -2.1464 H   0  0  0  0  0  0  0  0  0  0  0  0
    0.3785    4.1700   -2.9790 H   0  0  0  0  0  0  0  0  0  0  0  0
   -1.2226    2.2715   -3.7794 H   0  0  0  0  0  0  0  0  0  0  0  0
    2.3748   -0.5402   -1.8626 H   0  0  0  0  0  0  0  0  0  0  0  0
    3.3210   -1.6318    0.1015 H   0  0  0  0  0  0  0  0  0  0  0  0
    0.9123    0.8816    2.6589 H   0  0  0  0  0  0  0  0  0  0  0  0
   -0.0752    1.9324    0.6915 H   0  0  0  0  0  0  0  0  0  0  0  0
    3.2690   -4.5369    4.4779 H   0  0  0  0  0  0  0  0  0  0  0  0
    5.6386   -4.6159    3.8576 H   0  0  0  0  0  0  0  0  0  0  0  0
    7.5524   -3.5646    2.7206 H   0  0  0  0  0  0  0  0  0  0  0  0
    8.5808    0.1582    0.3456 H   0  0  0  0  0  0  0  0  0  0  0  0
    7.3000    0.7949    1.4437 H   0  0  0  0  0  0  0  0  0  0  0  0
    6.8463   -0.0713   -0.0926 H   0  0  0  0  0  0  0  0  0  0  0  0
    5.0708   -0.2256    1.6227 H   0  0  0  0  0  0  0  0  0  0  0  0
   -2.2048   -0.1964   -0.2414 H   0  0  0  0  0  0  0  0  0  0  0  0
   -2.4515   -3.6563    1.1343 H   0  0  0  0  0  0  0  0  0  0  0  0
   -0.5540   -3.5336   -0.2514 H   0  0  0  0  0  0  0  0  0  0  0  0
   -1.8432   -2.6470   -1.1219 H   0  0  0  0  0  0  0  0  0  0  0  0
   -0.5300   -1.7382   -0.2653 H   0  0  0  0  0  0  0  0  0  0  0  0
   -1.8692   -2.2836    3.2072 H   0  0  0  0  0  0  0  0  0  0  0  0
   -0.7294   -1.3227    2.2186 H   0  0  0  0  0  0  0  0  0  0  0  0
   -0.5736   -4.3915    2.5840 H   0  0  0  0  0  0  0  0  0  0  0  0
    0.3352   -3.1878    3.5682 H   0  0  0  0  0  0  0  0  0  0  0  0
    0.6674   -3.3199    1.8065 H   0  0  0  0  0  0  0  0  0  0  0  0
   -3.8724   -3.6826    2.7506 H   0  0  0  0  0  0  0  0  0  0  0  0
   -6.4042   -1.1821    2.1876 H   0  0  0  0  0  0  0  0  0  0  0  0
   -6.2271    0.8494    0.8302 H   0  0  0  0  0  0  0  0  0  0  0  0
  1  2  1  0
  2  3  1  0
  3  4  1  0
  4  5  1  0
  5  6  1  0
  6  7  1  0
  7  8  1  0
  8  9  1  0
  9 10  1  0
 10 11  2  0
 10 12  1  0
 12 13  2  0
 13 14  1  0
 14 15  2  0
 15 16  1  0
 16 17  2  0
 15 18  1  0
 18 19  2  0
 18 20  1  0
 20 21  2  0
 21 22  1  0
 21 23  1  0
 23 24  2  0
 24 25  1  0
 25 26  1  0
 26 27  1  0
 25 28  2  0
  1 29  1  0
 29 30  2  0
 29 31  1  0
 31 32  2  0
 32 33  1  0
 33 34  1  0
 34 35  1  0
 34 36  1  0
 36 37  1  0
 33 38  2  0
 38 39  1  0
 38 40  1  0
 40 41  2  0
  8  2  1  0
 17 12  1  0
 28 20  1  0
 41 31  1  0
  1 42  1  0
  2 43  1  1
  3 44  1  0
  3 45  1  0
  4 46  1  0
  5 47  1  0
  5 48  1  0
  6 49  1  0
  6 50  1  0
  7 51  1  0
  7 52  1  0
  8 53  1  6
 13 54  1  0
 14 55  1  0
 16 56  1  0
 17 57  1  0
 22 58  1  0
 23 59  1  0
 24 60  1  0
 27 61  1  0
 27 62  1  0
 27 63  1  0
 28 64  1  0
 32 65  1  0
 34 66  1  1
 35 67  1  0
 35 68  1  0
 35 69  1  0
 36 70  1  0
 36 71  1  0
 37 72  1  0
 37 73  1  0
 37 74  1  0
 39 75  1  0
 40 76  1  0
 41 77  1  0
M  END
$$$$
