
     RDKit          3D

 32 33  0  0  0  0  0  0  0  0999 V2000
    5.9088    1.1397   -0.9561 N   0  0  0  0  0  0  0  0  0  0  0  0
    5.3727   -0.1492    0.0631 S   0  0  0  0  0  6  0  0  0  0  0  0
    6.0162   -1.4351   -0.3745 O   0  0  0  0  0  0  0  0  0  0  0  0
    5.7781    0.1326    1.4828 O   0  0  0  0  0  0  0  0  0  0  0  0
    3.6208   -0.2945   -0.0387 C   0  0  0  0  0  0  0  0  0  0  0  0
    2.8013    0.4398    0.8280 C   0  0  0  0  0  0  0  0  0  0  0  0
    1.4099    0.3369    0.7384 C   0  0  0  0  0  0  0  0  0  0  0  0
    0.8202   -0.5100   -0.2175 C   0  0  0  0  0  0  0  0  0  0  0  0
   -0.6080   -0.6137   -0.3481 N   0  0  0  0  0  0  0  0  0  0  0  0
   -1.5265   -0.4631    0.7456 C   0  0  0  0  0  0  0  0  0  0  0  0
   -1.1306   -0.6371    1.9305 O   0  0  0  0  0  0  0  0  0  0  0  0
   -2.9602   -0.1984    0.4930 C   0  0  0  0  0  0  0  0  0  0  0  0
   -3.9205   -0.9031    1.2410 C   0  0  0  0  0  0  0  0  0  0  0  0
   -5.2844   -0.6959    1.0221 C   0  0  0  0  0  0  0  0  0  0  0  0
   -5.7069    0.2233    0.0618 C   0  0  0  0  0  0  0  0  0  0  0  0
   -4.7668    0.9458   -0.6752 C   0  0  0  0  0  0  0  0  0  0  0  0
   -3.3954    0.7491   -0.4650 C   0  0  0  0  0  0  0  0  0  0  0  0
   -2.2462    1.7844   -1.3811 S   0  0  0  0  0  0  0  0  0  0  0  0
    1.6460   -1.2195   -1.1023 C   0  0  0  0  0  0  0  0  0  0  0  0
    3.0371   -1.1164   -1.0111 C   0  0  0  0  0  0  0  0  0  0  0  0
    5.4076    2.0022   -0.6460 H   0  0  0  0  0  0  0  0  0  0  0  0
    5.5709    0.9258   -1.9212 H   0  0  0  0  0  0  0  0  0  0  0  0
    3.2381    1.1007    1.5659 H   0  0  0  0  0  0  0  0  0  0  0  0
    0.7990    0.9385    1.3980 H   0  0  0  0  0  0  0  0  0  0  0  0
   -0.9998   -0.8949   -1.2756 H   0  0  0  0  0  0  0  0  0  0  0  0
   -3.6138   -1.6283    1.9851 H   0  0  0  0  0  0  0  0  0  0  0  0
   -6.0147   -1.2506    1.5970 H   0  0  0  0  0  0  0  0  0  0  0  0
   -6.7642    0.3833   -0.1053 H   0  0  0  0  0  0  0  0  0  0  0  0
   -5.1074    1.6713   -1.4033 H   0  0  0  0  0  0  0  0  0  0  0  0
   -2.2483    2.7691   -0.3756 H   0  0  0  0  0  0  0  0  0  0  0  0
    1.2099   -1.8588   -1.8598 H   0  0  0  0  0  0  0  0  0  0  0  0
    3.6571   -1.6737   -1.7017 H   0  0  0  0  0  0  0  0  0  0  0  0
  1  2  1  0
  2  3  2  0
  2  4  2  0
  2  5  1  0
  5  6  2  0
  6  7  1  0
  7  8  2  0
  8  9  1  0
  9 10  1  0
 10 11  2  0
 10 12  1  0
 12 13  2  0
 13 14  1  0
 14 15  2  0
 15 16  1  0
 16 17  2  0
 17 18  1  0
  8 19  1  0
 19 20  2  0
 20  5  1  0
 17 12  1  0
  1 21  1  0
  1 22  1  0
  6 23  1  0
  7 24  1  0
  9 25  1  0
 13 26  1  0
 14 27  1  0
 15 28  1  0
 16 29  1  0
 18 30  1  0
 19 31  1  0
 20 32  1  0
M  END
$$$$
