
     RDKit          3D

 54 56  0  0  0  0  0  0  0  0999 V2000
   -0.7076   -0.5656   -2.2164 C   0  0  0  0  0  0  0  0  0  0  0  0
   -1.2087   -1.1850   -0.8886 C   0  0  0  0  0  0  0  0  0  0  0  0
   -2.2427   -2.2856   -1.2300 C   0  0  0  0  0  0  0  0  0  0  0  0
   -1.8803   -0.1051    0.0200 C   0  0  0  0  0  0  0  0  0  0  0  0
   -3.1560    0.4871   -0.5397 C   0  0  0  0  0  0  0  0  0  0  0  0
   -4.4032   -0.0531   -0.1844 C   0  0  0  0  0  0  0  0  0  0  0  0
   -5.5839    0.4829   -0.7042 C   0  0  0  0  0  0  0  0  0  0  0  0
   -5.5362    1.5723   -1.5850 C   0  0  0  0  0  0  0  0  0  0  0  0
   -6.7163    2.1174   -2.1145 C   0  0  0  0  0  0  0  0  0  0  0  0
   -6.6551    3.2047   -2.9908 C   0  0  0  0  0  0  0  0  0  0  0  0
   -5.4201    3.7549   -3.3440 C   0  0  0  0  0  0  0  0  0  0  0  0
   -4.2375    3.2215   -2.8235 C   0  0  0  0  0  0  0  0  0  0  0  0
   -4.2847    2.1293   -1.9428 C   0  0  0  0  0  0  0  0  0  0  0  0
   -3.1046    1.5849   -1.4148 C   0  0  0  0  0  0  0  0  0  0  0  0
   -0.0965   -1.8360   -0.1446 N   0  0  0  0  0  0  0  0  0  0  0  0
    1.1109   -1.0118    0.0472 C   0  0  0  0  0  0  0  0  0  0  0  0
    2.0080   -1.6391    1.1292 C   0  0  1  0  0  0  0  0  0  0  0  0
    2.4100   -2.9357    0.7607 O   0  0  0  0  0  0  0  0  0  0  0  0
    3.2311   -0.7573    1.4160 C   0  0  0  0  0  0  0  0  0  0  0  0
    4.0207   -1.3618    2.4358 O   0  0  0  0  0  0  0  0  0  0  0  0
    5.2280   -0.8858    2.9849 C   0  0  0  0  0  0  0  0  0  0  0  0
    5.8092   -1.6954    3.9704 C   0  0  0  0  0  0  0  0  0  0  0  0
    7.0047   -1.3336    4.5884 C   0  0  0  0  0  0  0  0  0  0  0  0
    7.6441   -0.1502    4.2314 C   0  0  0  0  0  0  0  0  0  0  0  0
    7.0925    0.6812    3.2537 C   0  0  0  0  0  0  0  0  0  0  0  0
    7.9516    2.1666    2.8481 Cl  0  0  0  0  0  0  0  0  0  0  0  0
    5.8815    0.3280    2.6186 C   0  0  0  0  0  0  0  0  0  0  0  0
    5.3537    1.2246    1.6177 C   0  0  0  0  0  0  0  0  0  0  0  0
    4.9397    1.9509    0.8168 N   0  0  0  0  0  0  0  0  0  0  0  0
   -1.5588   -0.2630   -2.8624 H   0  0  0  0  0  0  0  0  0  0  0  0
   -0.0876    0.3364   -2.0286 H   0  0  0  0  0  0  0  0  0  0  0  0
   -0.0987   -1.3039   -2.7809 H   0  0  0  0  0  0  0  0  0  0  0  0
   -3.0833   -1.8851   -1.8352 H   0  0  0  0  0  0  0  0  0  0  0  0
   -2.6530   -2.7327   -0.2991 H   0  0  0  0  0  0  0  0  0  0  0  0
   -1.7706   -3.0972   -1.8247 H   0  0  0  0  0  0  0  0  0  0  0  0
   -2.0924   -0.5544    1.0155 H   0  0  0  0  0  0  0  0  0  0  0  0
   -1.1822    0.7347    0.2123 H   0  0  0  0  0  0  0  0  0  0  0  0
   -4.4607   -0.8962    0.4929 H   0  0  0  0  0  0  0  0  0  0  0  0
   -6.5331    0.0456   -0.4184 H   0  0  0  0  0  0  0  0  0  0  0  0
   -7.6826    1.7038   -1.8514 H   0  0  0  0  0  0  0  0  0  0  0  0
   -7.5674    3.6221   -3.3971 H   0  0  0  0  0  0  0  0  0  0  0  0
   -5.3792    4.5968   -4.0230 H   0  0  0  0  0  0  0  0  0  0  0  0
   -3.2889    3.6607   -3.1088 H   0  0  0  0  0  0  0  0  0  0  0  0
   -2.1452    2.0122   -1.6833 H   0  0  0  0  0  0  0  0  0  0  0  0
    0.2034   -2.6987   -0.6588 H   0  0  0  0  0  0  0  0  0  0  0  0
    1.6812   -0.9356   -0.9058 H   0  0  0  0  0  0  0  0  0  0  0  0
    0.8489    0.0129    0.3751 H   0  0  0  0  0  0  0  0  0  0  0  0
    1.4146   -1.7164    2.0668 H   0  0  0  0  0  0  0  0  0  0  0  0
    2.9356   -2.8602   -0.0787 H   0  0  0  0  0  0  0  0  0  0  0  0
    3.8331   -0.6540    0.4873 H   0  0  0  0  0  0  0  0  0  0  0  0
    2.8805    0.2388    1.7626 H   0  0  0  0  0  0  0  0  0  0  0  0
    5.3251   -2.6199    4.2600 H   0  0  0  0  0  0  0  0  0  0  0  0
    7.4366   -1.9738    5.3469 H   0  0  0  0  0  0  0  0  0  0  0  0
    8.5726    0.1219    4.7175 H   0  0  0  0  0  0  0  0  0  0  0  0
  1  2  1  0
  2  3  1  0
  2  4  1  0
  4  5  1  0
  5  6  2  0
  6  7  1  0
  7  8  2  0
  8  9  1  0
  9 10  2  0
 10 11  1  0
 11 12  2  0
 12 13  1  0
 13 14  2  0
  2 15  1  0
 15 16  1  0
 16 17  1  0
 17 18  1  0
 17 19  1  0
 19 20  1  0
 20 21  1  0
 21 22  2  0
 22 23  1  0
 23 24  2  0
 24 25  1  0
 25 26  1  0
 25 27  2  0
 27 28  1  0
 28 29  3  0
 14  5  1  0
 27 21  1  0
 13  8  1  0
  1 30  1  0
  1 31  1  0
  1 32  1  0
  3 33  1  0
  3 34  1  0
  3 35  1  0
  4 36  1  0
  4 37  1  0
  6 38  1  0
  7 39  1  0
  9 40  1  0
 10 41  1  0
 11 42  1  0
 12 43  1  0
 14 44  1  0
 15 45  1  0
 16 46  1  0
 16 47  1  0
 17 48  1  1
 18 49  1  0
 19 50  1  0
 19 51  1  0
 22 52  1  0
 23 53  1  0
 24 54  1  0
M  END
$$$$
