
     RDKit          3D

 49 52  0  0  0  0  0  0  0  0999 V2000
   -1.1485    2.4551   -2.8334 F   0  0  0  0  0  0  0  0  0  0  0  0
   -0.4119    2.0903   -1.7531 C   0  0  0  0  0  0  0  0  0  0  0  0
    0.6965    2.8619   -1.3951 C   0  0  0  0  0  0  0  0  0  0  0  0
    1.4633    2.5181   -0.2804 C   0  0  0  0  0  0  0  0  0  0  0  0
    1.1365    1.3864    0.4834 C   0  0  0  0  0  0  0  0  0  0  0  0
    1.9731    1.0125    1.6815 C   0  0  0  0  0  0  0  0  0  0  0  0
    3.3979    0.7129    1.2819 C   0  0  0  0  0  0  0  0  0  0  0  0
    4.3296    1.6805    1.4937 N   0  0  0  0  0  0  0  0  0  0  0  0
    5.6080    1.5308    1.1503 N   0  0  0  0  0  0  0  0  0  0  0  0
    6.0551    0.3947    0.5556 C   0  0  0  0  0  0  0  0  0  0  0  0
    7.2736    0.2946    0.2437 O   0  0  0  0  0  0  0  0  0  0  0  0
    5.1553   -0.6518    0.2953 C   0  0  0  0  0  0  0  0  0  0  0  0
    5.5795   -1.8433   -0.3241 C   0  0  0  0  0  0  0  0  0  0  0  0
    4.6688   -2.8700   -0.5753 C   0  0  0  0  0  0  0  0  0  0  0  0
    3.3311   -2.7235   -0.2119 C   0  0  0  0  0  0  0  0  0  0  0  0
    2.8934   -1.5493    0.4043 C   0  0  0  0  0  0  0  0  0  0  0  0
    3.7959   -0.4965    0.6645 C   0  0  0  0  0  0  0  0  0  0  0  0
    0.0122    0.6218    0.1304 C   0  0  0  0  0  0  0  0  0  0  0  0
   -0.7719    0.9701   -0.9824 C   0  0  0  0  0  0  0  0  0  0  0  0
   -1.9416    0.1428   -1.3562 C   0  0  0  0  0  0  0  0  0  0  0  0
   -2.1521   -0.0979   -2.5764 O   0  0  0  0  0  0  0  0  0  0  0  0
   -2.8343   -0.4002   -0.3591 N   0  0  0  0  0  0  0  0  0  0  0  0
   -3.5248   -1.6671   -0.6313 C   0  0  0  0  0  0  0  0  0  0  0  0
   -4.8755   -1.4059   -1.3054 C   0  0  0  0  0  0  0  0  0  0  0  0
   -5.9324   -0.8650   -0.3308 C   0  0  0  0  0  0  0  0  0  0  0  0
   -5.5349    0.4031    0.3011 N   0  0  0  0  0  0  0  0  0  0  0  0
   -4.5471    0.2168    1.3775 C   0  0  0  0  0  0  0  0  0  0  0  0
   -3.0961    0.3497    0.8817 C   0  0  0  0  0  0  0  0  0  0  0  0
    0.9615    3.7320   -1.9820 H   0  0  0  0  0  0  0  0  0  0  0  0
    2.3164    3.1304   -0.0158 H   0  0  0  0  0  0  0  0  0  0  0  0
    1.9600    1.8650    2.3952 H   0  0  0  0  0  0  0  0  0  0  0  0
    1.5415    0.1511    2.2344 H   0  0  0  0  0  0  0  0  0  0  0  0
    6.2748    2.3115    1.3427 H   0  0  0  0  0  0  0  0  0  0  0  0
    6.6132   -1.9834   -0.6157 H   0  0  0  0  0  0  0  0  0  0  0  0
    5.0016   -3.7829   -1.0521 H   0  0  0  0  0  0  0  0  0  0  0  0
    2.6293   -3.5242   -0.4071 H   0  0  0  0  0  0  0  0  0  0  0  0
    1.8507   -1.4833    0.6734 H   0  0  0  0  0  0  0  0  0  0  0  0
   -0.2413   -0.2566    0.7103 H   0  0  0  0  0  0  0  0  0  0  0  0
   -3.6612   -2.2461    0.3078 H   0  0  0  0  0  0  0  0  0  0  0  0
   -2.9005   -2.3004   -1.2993 H   0  0  0  0  0  0  0  0  0  0  0  0
   -5.2506   -2.3635   -1.7270 H   0  0  0  0  0  0  0  0  0  0  0  0
   -4.7500   -0.6981   -2.1529 H   0  0  0  0  0  0  0  0  0  0  0  0
   -6.1776   -1.6325    0.4364 H   0  0  0  0  0  0  0  0  0  0  0  0
   -6.8683   -0.6883   -0.9028 H   0  0  0  0  0  0  0  0  0  0  0  0
   -5.1876    1.0791   -0.4197 H   0  0  0  0  0  0  0  0  0  0  0  0
   -4.6849   -0.7555    1.9004 H   0  0  0  0  0  0  0  0  0  0  0  0
   -4.7211    0.9996    2.1461 H   0  0  0  0  0  0  0  0  0  0  0  0
   -2.8926    1.4311    0.7180 H   0  0  0  0  0  0  0  0  0  0  0  0
   -2.4120   -0.0076    1.6798 H   0  0  0  0  0  0  0  0  0  0  0  0
  1  2  1  0
  2  3  2  0
  3  4  1  0
  4  5  2  0
  5  6  1  0
  6  7  1  0
  7  8  2  0
  8  9  1  0
  9 10  1  0
 10 11  2  0
 10 12  1  0
 12 13  2  0
 13 14  1  0
 14 15  2  0
 15 16  1  0
 16 17  2  0
  5 18  1  0
 18 19  2  0
 19 20  1  0
 20 21  2  0
 20 22  1  0
 22 23  1  0
 23 24  1  0
 24 25  1  0
 25 26  1  0
 26 27  1  0
 27 28  1  0
 19  2  1  0
 28 22  1  0
 17  7  1  0
 17 12  1  0
  3 29  1  0
  4 30  1  0
  6 31  1  0
  6 32  1  0
  9 33  1  0
 13 34  1  0
 14 35  1  0
 15 36  1  0
 16 37  1  0
 18 38  1  0
 23 39  1  0
 23 40  1  0
 24 41  1  0
 24 42  1  0
 25 43  1  0
 25 44  1  0
 26 45  1  0
 27 46  1  0
 27 47  1  0
 28 48  1  0
 28 49  1  0
M  END
$$$$
