
     RDKit          3D

 41 43  0  0  0  0  0  0  0  0999 V2000
    2.3560   -3.5781   -1.6373 C   0  0  0  0  0  0  0  0  0  0  0  0
    1.0952   -2.8747   -2.0404 C   0  0  0  0  0  0  0  0  0  0  0  0
    0.8682   -2.6684   -3.2233 O   0  0  0  0  0  0  0  0  0  0  0  0
    0.0982   -2.4347   -0.9982 C   0  0  0  0  0  0  0  0  0  0  0  0
    0.0492   -0.8923   -0.8777 C   0  0  0  0  0  0  0  0  0  0  0  0
    1.3255   -0.3458   -0.2626 C   0  0  0  0  0  0  0  0  0  0  0  0
    2.2179    0.4062   -1.0450 C   0  0  0  0  0  0  0  0  0  0  0  0
    3.4029    0.9011   -0.4943 C   0  0  0  0  0  0  0  0  0  0  0  0
    3.7236    0.6526    0.8518 C   0  0  0  0  0  0  0  0  0  0  0  0
    2.8332   -0.1023    1.6332 C   0  0  0  0  0  0  0  0  0  0  0  0
    1.6483   -0.5972    1.0823 C   0  0  0  0  0  0  0  0  0  0  0  0
    4.9436    1.1600    1.4227 N   0  0  0  0  0  4  0  0  0  0  0  0
    5.2543    0.9141    2.7406 O   0  0  0  0  0  1  0  0  0  0  0  0
    5.7390    1.8310    0.7326 O   0  0  0  0  0  0  0  0  0  0  0  0
   -1.1827   -0.3250   -0.1579 C   0  0  0  0  0  0  0  0  0  0  0  0
   -1.6480    0.9616   -0.5191 C   0  0  0  0  0  0  0  0  0  0  0  0
   -0.9623    1.6598   -1.5216 O   0  0  0  0  0  0  0  0  0  0  0  0
   -2.7733    1.5100    0.1408 C   0  0  0  0  0  0  0  0  0  0  0  0
   -3.3296    2.7666   -0.1855 C   0  0  0  0  0  0  0  0  0  0  0  0
   -4.4418    3.2503    0.5105 C   0  0  0  0  0  0  0  0  0  0  0  0
   -5.0151    2.4957    1.5339 C   0  0  0  0  0  0  0  0  0  0  0  0
   -4.4805    1.2511    1.8658 C   0  0  0  0  0  0  0  0  0  0  0  0
   -3.3682    0.7548    1.1769 C   0  0  0  0  0  0  0  0  0  0  0  0
   -2.8797   -0.4294    1.5132 O   0  0  0  0  0  0  0  0  0  0  0  0
   -1.8361   -0.9844    0.9127 C   0  0  0  0  0  0  0  0  0  0  0  0
   -1.4444   -2.1057    1.3265 O   0  0  0  0  0  0  0  0  0  0  0  0
    2.1045   -4.5331   -1.1307 H   0  0  0  0  0  0  0  0  0  0  0  0
    2.9849   -3.7975   -2.5264 H   0  0  0  0  0  0  0  0  0  0  0  0
    2.9343   -2.9356   -0.9405 H   0  0  0  0  0  0  0  0  0  0  0  0
   -0.9032   -2.8227   -1.2858 H   0  0  0  0  0  0  0  0  0  0  0  0
    0.3794   -2.8953   -0.0279 H   0  0  0  0  0  0  0  0  0  0  0  0
   -0.0209   -0.5341   -1.9294 H   0  0  0  0  0  0  0  0  0  0  0  0
    1.9996    0.6098   -2.0860 H   0  0  0  0  0  0  0  0  0  0  0  0
    4.0694    1.4775   -1.1230 H   0  0  0  0  0  0  0  0  0  0  0  0
    3.0529   -0.3129    2.6718 H   0  0  0  0  0  0  0  0  0  0  0  0
    0.9867   -1.1797    1.7081 H   0  0  0  0  0  0  0  0  0  0  0  0
   -1.1756    2.5997   -1.8202 H   0  0  0  0  0  0  0  0  0  0  0  0
   -2.9358    3.3882   -0.9731 H   0  0  0  0  0  0  0  0  0  0  0  0
   -4.8622    4.2141    0.2530 H   0  0  0  0  0  0  0  0  0  0  0  0
   -5.8760    2.8753    2.0690 H   0  0  0  0  0  0  0  0  0  0  0  0
   -4.9313    0.6697    2.6605 H   0  0  0  0  0  0  0  0  0  0  0  0
  1  2  1  0
  2  3  2  0
  2  4  1  0
  4  5  1  0
  5  6  1  0
  6  7  2  0
  7  8  1  0
  8  9  2  0
  9 10  1  0
 10 11  2  0
  9 12  1  0
 12 13  1  0
 12 14  2  0
  5 15  1  0
 15 16  2  0
 16 17  1  0
 16 18  1  0
 18 19  2  0
 19 20  1  0
 20 21  2  0
 21 22  1  0
 22 23  2  0
 23 24  1  0
 24 25  1  0
 25 26  2  0
 11  6  1  0
 25 15  1  0
 23 18  1  0
  1 27  1  0
  1 28  1  0
  1 29  1  0
  4 30  1  0
  4 31  1  0
  5 32  1  0
  7 33  1  0
  8 34  1  0
 10 35  1  0
 11 36  1  0
 17 37  1  0
 19 38  1  0
 20 39  1  0
 21 40  1  0
 22 41  1  0
M  CHG  2  12   1  13  -1
M  END
$$$$
