
     RDKit          3D

 58 60  0  0  0  0  0  0  0  0999 V2000
    0.3369    0.6334   -1.0665 C   0  0  2  0  0  0  0  0  0  0  0  0
    1.3494   -0.5202   -1.2745 C   0  0  0  0  0  0  0  0  0  0  0  0
    1.6069   -1.5922    0.1536 S   0  0  0  0  0  6  0  0  0  0  0  0
    0.4692   -2.5683    0.2398 O   0  0  0  0  0  0  0  0  0  0  0  0
    1.6430   -0.7883    1.4235 O   0  0  0  0  0  0  0  0  0  0  0  0
    3.0937   -2.5000    0.0199 N   0  0  0  0  0  0  0  0  0  0  0  0
    3.1574   -3.1996   -1.2716 C   0  0  0  0  0  0  0  0  0  0  0  0
    4.4844   -3.9606   -1.3717 C   0  0  0  0  0  0  0  0  0  0  0  0
    5.5795   -3.0721   -1.2480 O   0  0  0  0  0  0  0  0  0  0  0  0
    5.5454   -2.4402    0.0183 C   0  0  0  0  0  0  0  0  0  0  0  0
    4.2602   -1.6192    0.1827 C   0  0  0  0  0  0  0  0  0  0  0  0
    0.7168    1.5188    0.0611 N   0  0  0  0  0  0  0  0  0  0  0  0
    0.3708    2.9375   -0.1836 C   0  0  1  0  0  0  0  0  0  0  0  0
   -1.1220    3.1664   -0.0284 C   0  0  0  0  0  0  0  0  0  0  0  0
   -1.7805    2.8682    1.1795 C   0  0  0  0  0  0  0  0  0  0  0  0
   -3.1407    3.1535    1.3324 C   0  0  0  0  0  0  0  0  0  0  0  0
   -3.8633    3.7123    0.2758 C   0  0  0  0  0  0  0  0  0  0  0  0
   -5.1849    3.9765    0.4230 F   0  0  0  0  0  0  0  0  0  0  0  0
   -3.2252    3.9916   -0.9349 C   0  0  0  0  0  0  0  0  0  0  0  0
   -1.8611    3.7259   -1.0865 C   0  0  0  0  0  0  0  0  0  0  0  0
    1.1625    3.8689    0.7617 C   0  0  0  0  0  0  0  0  0  0  0  0
    1.0290    3.4663    2.0787 F   0  0  0  0  0  0  0  0  0  0  0  0
    0.7098    5.1717    0.6395 F   0  0  0  0  0  0  0  0  0  0  0  0
    2.5052    3.8432    0.4268 F   0  0  0  0  0  0  0  0  0  0  0  0
   -1.0683    0.1032   -0.9064 C   0  0  0  0  0  0  0  0  0  0  0  0
   -1.8111    0.0357   -1.9234 O   0  0  0  0  0  0  0  0  0  0  0  0
   -1.5553   -0.3539    0.3645 N   0  0  0  0  0  0  0  0  0  0  0  0
   -2.8391   -1.0433    0.5093 C   0  0  0  0  0  0  0  0  0  0  0  0
   -2.8787   -2.5690    0.3069 C   0  0  0  0  0  0  0  0  0  0  0  0
   -2.6458   -2.9348   -1.0880 N   0  0  0  0  0  0  0  0  0  0  0  0
   -3.6936   -0.4947    1.6431 C   0  0  0  0  0  0  0  0  0  0  0  0
   -4.0797   -0.2229    0.1928 C   0  0  0  0  0  0  0  0  0  0  0  0
    0.3622    1.2049   -2.0231 H   0  0  0  0  0  0  0  0  0  0  0  0
    1.0117   -1.1492   -2.1263 H   0  0  0  0  0  0  0  0  0  0  0  0
    2.3227   -0.0788   -1.5710 H   0  0  0  0  0  0  0  0  0  0  0  0
    2.3191   -3.9252   -1.3488 H   0  0  0  0  0  0  0  0  0  0  0  0
    3.0914   -2.4831   -2.1197 H   0  0  0  0  0  0  0  0  0  0  0  0
    4.5397   -4.4534   -2.3652 H   0  0  0  0  0  0  0  0  0  0  0  0
    4.5338   -4.7625   -0.6002 H   0  0  0  0  0  0  0  0  0  0  0  0
    5.6368   -3.1891    0.8377 H   0  0  0  0  0  0  0  0  0  0  0  0
    6.4177   -1.7575    0.0960 H   0  0  0  0  0  0  0  0  0  0  0  0
    4.2546   -1.1697    1.1989 H   0  0  0  0  0  0  0  0  0  0  0  0
    4.2547   -0.8003   -0.5688 H   0  0  0  0  0  0  0  0  0  0  0  0
    1.7570    1.4727    0.1726 H   0  0  0  0  0  0  0  0  0  0  0  0
    0.6863    3.2275   -1.2125 H   0  0  0  0  0  0  0  0  0  0  0  0
   -1.2436    2.4181    2.0039 H   0  0  0  0  0  0  0  0  0  0  0  0
   -3.6365    2.9316    2.2685 H   0  0  0  0  0  0  0  0  0  0  0  0
   -3.7851    4.4222   -1.7550 H   0  0  0  0  0  0  0  0  0  0  0  0
   -1.3816    3.9638   -2.0277 H   0  0  0  0  0  0  0  0  0  0  0  0
   -0.9515   -0.2587    1.2106 H   0  0  0  0  0  0  0  0  0  0  0  0
   -3.8622   -2.9832    0.6188 H   0  0  0  0  0  0  0  0  0  0  0  0
   -2.1046   -3.0418    0.9475 H   0  0  0  0  0  0  0  0  0  0  0  0
   -3.3265   -2.4194   -1.6922 H   0  0  0  0  0  0  0  0  0  0  0  0
   -1.6825   -2.6385   -1.3636 H   0  0  0  0  0  0  0  0  0  0  0  0
   -3.2803    0.3891    2.1716 H   0  0  0  0  0  0  0  0  0  0  0  0
   -4.3644   -1.2202    2.1504 H   0  0  0  0  0  0  0  0  0  0  0  0
   -3.8846    0.8145   -0.1472 H   0  0  0  0  0  0  0  0  0  0  0  0
   -4.9552   -0.8079   -0.1606 H   0  0  0  0  0  0  0  0  0  0  0  0
  1  2  1  0
  2  3  1  0
  3  4  2  0
  3  5  2  0
  3  6  1  0
  6  7  1  0
  7  8  1  0
  8  9  1  0
  9 10  1  0
 10 11  1  0
  1 12  1  0
 12 13  1  0
 13 14  1  0
 14 15  2  0
 15 16  1  0
 16 17  2  0
 17 18  1  0
 17 19  1  0
 19 20  2  0
 13 21  1  0
 21 22  1  0
 21 23  1  0
 21 24  1  0
  1 25  1  0
 25 26  2  0
 25 27  1  0
 27 28  1  0
 28 29  1  0
 29 30  1  0
 28 31  1  0
 31 32  1  0
 11  6  1  0
 20 14  1  0
 32 28  1  0
  1 33  1  6
  2 34  1  0
  2 35  1  0
  7 36  1  0
  7 37  1  0
  8 38  1  0
  8 39  1  0
 10 40  1  0
 10 41  1  0
 11 42  1  0
 11 43  1  0
 12 44  1  0
 13 45  1  6
 15 46  1  0
 16 47  1  0
 19 48  1  0
 20 49  1  0
 27 50  1  0
 29 51  1  0
 29 52  1  0
 30 53  1  0
 30 54  1  0
 31 55  1  0
 31 56  1  0
 32 57  1  0
 32 58  1  0
M  END
$$$$
