
     RDKit          3D

 51 54  0  0  0  0  0  0  0  0999 V2000
   -3.8601    1.0400   -1.6196 C   0  0  2  0  0  0  0  0  0  0  0  0
   -4.6464    0.0158   -2.4509 C   0  0  0  0  0  0  0  0  0  0  0  0
   -2.4506    0.6460   -1.5084 N   0  0  0  0  0  0  0  0  0  0  0  0
   -1.9767   -0.4811   -0.7508 C   0  0  0  0  0  0  0  0  0  0  0  0
   -0.5932   -0.7623   -0.7081 C   0  0  0  0  0  0  0  0  0  0  0  0
   -0.1891   -1.8557    0.0565 C   0  0  0  0  0  0  0  0  0  0  0  0
   -1.0914   -2.6462    0.7003 C   0  0  0  0  0  0  0  0  0  0  0  0
   -0.4708   -3.6347    1.2925 O   0  0  0  0  0  0  0  0  0  0  0  0
    0.8153   -3.5494    1.0772 N   0  0  0  0  0  0  0  0  0  0  0  0
    1.0342   -2.4484    0.3161 C   0  0  0  0  0  0  0  0  0  0  0  0
    2.3743   -2.0155   -0.1307 C   0  0  0  0  0  0  0  0  0  0  0  0
    3.3510   -2.9780   -0.4311 C   0  0  0  0  0  0  0  0  0  0  0  0
    4.6283   -2.5853   -0.8420 C   0  0  0  0  0  0  0  0  0  0  0  0
    5.8378   -3.7974   -1.2227 Cl  0  0  0  0  0  0  0  0  0  0  0  0
    4.9442   -1.2279   -0.9460 C   0  0  0  0  0  0  0  0  0  0  0  0
    3.9847   -0.2528   -0.6332 C   0  0  0  0  0  0  0  0  0  0  0  0
    4.3364    1.2119   -0.6982 C   0  0  0  0  0  0  0  0  0  0  0  0
    4.6321    1.7972    0.6919 C   0  0  0  0  0  0  0  0  0  0  0  0
    5.8928    1.2085    1.3401 C   0  0  0  0  0  0  0  0  0  0  0  0
    7.0223    1.4326    0.5398 O   0  0  0  0  0  0  0  0  0  0  0  0
    2.7053   -0.6526   -0.2151 C   0  0  0  0  0  0  0  0  0  0  0  0
   -2.4499   -2.3682    0.6565 C   0  0  0  0  0  0  0  0  0  0  0  0
   -2.8571   -1.2856   -0.0689 N   0  0  0  0  0  0  0  0  0  0  0  0
   -4.4439    1.3484   -0.2490 C   0  0  0  0  0  0  0  0  0  0  0  0
   -5.3584    0.4951    0.4053 C   0  0  0  0  0  0  0  0  0  0  0  0
   -5.8373    0.8142    1.6797 C   0  0  0  0  0  0  0  0  0  0  0  0
   -5.4098    1.9792    2.3192 C   0  0  0  0  0  0  0  0  0  0  0  0
   -4.4992    2.8275    1.6871 C   0  0  0  0  0  0  0  0  0  0  0  0
   -4.0164    2.5138    0.4135 C   0  0  0  0  0  0  0  0  0  0  0  0
   -3.9024    1.9876   -2.2033 H   0  0  0  0  0  0  0  0  0  0  0  0
   -4.2201   -0.0360   -3.4753 H   0  0  0  0  0  0  0  0  0  0  0  0
   -5.7099    0.3257   -2.5337 H   0  0  0  0  0  0  0  0  0  0  0  0
   -4.5951   -0.9999   -2.0089 H   0  0  0  0  0  0  0  0  0  0  0  0
   -1.7460    1.2473   -1.9937 H   0  0  0  0  0  0  0  0  0  0  0  0
    0.1155   -0.1628   -1.2625 H   0  0  0  0  0  0  0  0  0  0  0  0
    3.1179   -4.0334   -0.3569 H   0  0  0  0  0  0  0  0  0  0  0  0
    5.9392   -0.9336   -1.2570 H   0  0  0  0  0  0  0  0  0  0  0  0
    5.2044    1.3783   -1.3729 H   0  0  0  0  0  0  0  0  0  0  0  0
    3.4819    1.7674   -1.1425 H   0  0  0  0  0  0  0  0  0  0  0  0
    3.7630    1.6235    1.3631 H   0  0  0  0  0  0  0  0  0  0  0  0
    4.7599    2.8972    0.5951 H   0  0  0  0  0  0  0  0  0  0  0  0
    6.0399    1.6646    2.3452 H   0  0  0  0  0  0  0  0  0  0  0  0
    5.7679    0.1159    1.4914 H   0  0  0  0  0  0  0  0  0  0  0  0
    7.2501    2.3944    0.6335 H   0  0  0  0  0  0  0  0  0  0  0  0
    1.9855    0.1013    0.0759 H   0  0  0  0  0  0  0  0  0  0  0  0
   -3.1689   -2.9903    1.1721 H   0  0  0  0  0  0  0  0  0  0  0  0
   -5.7030   -0.4203   -0.0541 H   0  0  0  0  0  0  0  0  0  0  0  0
   -6.5389    0.1544    2.1737 H   0  0  0  0  0  0  0  0  0  0  0  0
   -5.7814    2.2226    3.3062 H   0  0  0  0  0  0  0  0  0  0  0  0
   -4.1641    3.7279    2.1855 H   0  0  0  0  0  0  0  0  0  0  0  0
   -3.3037    3.1795   -0.0580 H   0  0  0  0  0  0  0  0  0  0  0  0
  1  2  1  0
  1  3  1  0
  3  4  1  0
  4  5  2  0
  5  6  1  0
  6  7  2  0
  7  8  1  0
  8  9  1  0
  9 10  2  0
 10 11  1  0
 11 12  2  0
 12 13  1  0
 13 14  1  0
 13 15  2  0
 15 16  1  0
 16 17  1  0
 17 18  1  0
 18 19  1  0
 19 20  1  0
 16 21  2  0
  7 22  1  0
 22 23  2  0
  1 24  1  0
 24 25  2  0
 25 26  1  0
 26 27  2  0
 27 28  1  0
 28 29  2  0
 23  4  1  0
 29 24  1  0
 10  6  1  0
 21 11  1  0
  1 30  1  6
  2 31  1  0
  2 32  1  0
  2 33  1  0
  3 34  1  0
  5 35  1  0
 12 36  1  0
 15 37  1  0
 17 38  1  0
 17 39  1  0
 18 40  1  0
 18 41  1  0
 19 42  1  0
 19 43  1  0
 20 44  1  0
 21 45  1  0
 22 46  1  0
 25 47  1  0
 26 48  1  0
 27 49  1  0
 28 50  1  0
 29 51  1  0
M  END
$$$$
