
     RDKit          3D

 59 62  0  0  0  0  0  0  0  0999 V2000
    3.2232    0.9399    4.5555 O   0  0  0  0  0  1  0  0  0  0  0  0
    3.2171    1.1509    3.1827 C   0  0  0  0  0  0  0  0  0  0  0  0
    3.4861    2.2975    2.7396 O   0  0  0  0  0  0  0  0  0  0  0  0
    2.8048    0.0525    2.2828 C   0  0  0  0  0  0  0  0  0  0  0  0
    3.3434   -0.1884    1.0559 C   0  0  0  0  0  0  0  0  0  0  0  0
    2.8644   -1.3810    0.2357 C   0  0  0  0  0  0  0  0  0  0  0  0
    1.0498   -1.6498    0.3096 S   0  0  0  0  0  0  0  0  0  0  0  0
    1.0852   -1.9164    2.1143 C   0  0  2  0  0  0  0  0  0  0  0  0
   -0.1370   -1.7426    2.8740 C   0  0  2  0  0  0  0  0  0  0  0  0
   -1.2855   -1.2776    2.0914 N   0  0  0  0  0  0  0  0  0  0  0  0
   -2.0750   -2.1751    1.2972 C   0  0  0  0  0  0  0  0  0  0  0  0
   -1.8795   -3.4185    1.3733 O   0  0  0  0  0  0  0  0  0  0  0  0
   -3.1136   -1.6525    0.3775 C   0  0  0  0  0  0  0  0  0  0  0  0
   -2.8922   -0.5937   -0.3433 N   0  0  0  0  0  0  0  0  0  0  0  0
   -1.6900    0.0834   -0.3176 O   0  0  0  0  0  0  0  0  0  0  0  0
   -1.4808    1.2695   -1.0824 C   0  0  0  0  0  0  0  0  0  0  0  0
   -0.0632    1.7772   -0.7970 C   0  0  0  0  0  0  0  0  0  0  0  0
   -2.5075    2.3335   -0.6575 C   0  0  0  0  0  0  0  0  0  0  0  0
   -1.6047    0.9651   -2.5567 C   0  0  0  0  0  0  0  0  0  0  0  0
   -1.8735    1.9870   -3.4639 O   0  0  0  0  0  0  0  0  0  0  0  0
   -1.4003   -0.2045   -2.9813 O   0  0  0  0  0  0  0  0  0  0  0  0
   -4.4132   -2.3419    0.2276 C   0  0  0  0  0  0  0  0  0  0  0  0
   -4.8912   -3.3167    1.1089 C   0  0  0  0  0  0  0  0  0  0  0  0
   -6.4117   -3.8069    0.5787 S   0  0  0  0  0  0  0  0  0  0  0  0
   -6.3958   -2.7624   -0.7344 C   0  0  0  0  0  0  0  0  0  0  0  0
   -7.4523   -2.6403   -1.6823 N   0  0  0  0  0  0  0  0  0  0  0  0
   -5.2617   -2.0350   -0.7931 N   0  0  0  0  0  0  0  0  0  0  0  0
    0.5361   -0.6087    3.5889 C   0  0  0  0  0  0  0  0  0  0  0  0
    0.2099    0.1826    4.5116 O   0  0  0  0  0  0  0  0  0  0  0  0
    1.7178   -0.7687    2.7109 N   0  0  0  0  0  0  0  0  0  0  0  0
    4.5397    0.5659    0.5042 C   0  0  0  0  0  0  0  0  0  0  0  0
    4.1849    1.2786   -0.7327 N   0  0  0  0  0  4  0  0  0  0  0  0
    3.4139    2.4075   -0.6691 C   0  0  0  0  0  0  0  0  0  0  0  0
    3.0646    3.0972   -1.8325 C   0  0  0  0  0  0  0  0  0  0  0  0
    3.5012    2.6227   -3.0673 C   0  0  0  0  0  0  0  0  0  0  0  0
    4.2848    1.4722   -3.1261 C   0  0  0  0  0  0  0  0  0  0  0  0
    4.6219    0.8099   -1.9432 C   0  0  0  0  0  0  0  0  0  0  0  0
    3.3801   -2.2955    0.5984 H   0  0  0  0  0  0  0  0  0  0  0  0
    3.1367   -1.2553   -0.8315 H   0  0  0  0  0  0  0  0  0  0  0  0
    1.6265   -2.8504    2.3860 H   0  0  0  0  0  0  0  0  0  0  0  0
   -0.3844   -2.5858    3.5554 H   0  0  0  0  0  0  0  0  0  0  0  0
   -1.5975   -0.2836    2.1832 H   0  0  0  0  0  0  0  0  0  0  0  0
    0.1305    2.7273   -1.3400 H   0  0  0  0  0  0  0  0  0  0  0  0
    0.6895    1.0266   -1.1209 H   0  0  0  0  0  0  0  0  0  0  0  0
    0.0723    1.9547    0.2918 H   0  0  0  0  0  0  0  0  0  0  0  0
   -3.5375    2.0034   -0.9119 H   0  0  0  0  0  0  0  0  0  0  0  0
   -2.4551    2.4978    0.4403 H   0  0  0  0  0  0  0  0  0  0  0  0
   -2.3125    3.3015   -1.1677 H   0  0  0  0  0  0  0  0  0  0  0  0
   -1.9332    1.7978   -4.4572 H   0  0  0  0  0  0  0  0  0  0  0  0
   -4.3927   -3.6859    1.9946 H   0  0  0  0  0  0  0  0  0  0  0  0
   -8.3125   -3.2248   -1.5916 H   0  0  0  0  0  0  0  0  0  0  0  0
   -7.3732   -1.9650   -2.4745 H   0  0  0  0  0  0  0  0  0  0  0  0
    4.9912    1.2747    1.2237 H   0  0  0  0  0  0  0  0  0  0  0  0
    5.3479   -0.1741    0.3115 H   0  0  0  0  0  0  0  0  0  0  0  0
    3.0573    2.7797    0.2811 H   0  0  0  0  0  0  0  0  0  0  0  0
    2.4543    3.9892   -1.7758 H   0  0  0  0  0  0  0  0  0  0  0  0
    3.2330    3.1452   -3.9764 H   0  0  0  0  0  0  0  0  0  0  0  0
    4.6292    1.0950   -4.0803 H   0  0  0  0  0  0  0  0  0  0  0  0
    5.2299   -0.0849   -2.0032 H   0  0  0  0  0  0  0  0  0  0  0  0
  1  2  1  0
  2  3  2  0
  2  4  1  0
  4  5  2  0
  5  6  1  0
  6  7  1  0
  7  8  1  0
  8  9  1  0
  9 10  1  0
 10 11  1  0
 11 12  2  0
 11 13  1  0
 13 14  2  0
 14 15  1  0
 15 16  1  0
 16 17  1  0
 16 18  1  0
 16 19  1  0
 19 20  1  0
 19 21  2  0
 13 22  1  0
 22 23  2  0
 23 24  1  0
 24 25  1  0
 25 26  1  0
 25 27  2  0
  9 28  1  0
 28 29  2  0
 28 30  1  0
  5 31  1  0
 31 32  1  0
 32 33  2  0
 33 34  1  0
 34 35  2  0
 35 36  1  0
 36 37  2  0
 30  4  1  0
 37 32  1  0
 30  8  1  0
 27 22  1  0
  6 38  1  0
  6 39  1  0
  8 40  1  6
  9 41  1  1
 10 42  1  0
 17 43  1  0
 17 44  1  0
 17 45  1  0
 18 46  1  0
 18 47  1  0
 18 48  1  0
 20 49  1  0
 23 50  1  0
 26 51  1  0
 26 52  1  0
 31 53  1  0
 31 54  1  0
 33 55  1  0
 34 56  1  0
 35 57  1  0
 36 58  1  0
 37 59  1  0
M  CHG  2   1  -1  32   1
M  END
$$$$
