
     RDKit          3D

 57 57  0  0  0  0  0  0  0  0999 V2000
    3.5427   -0.6602   -0.1100 C   0  0  1  0  0  0  0  0  0  0  0  0
    4.4057   -0.2534   -1.1424 O   0  0  0  0  0  0  0  0  0  0  0  0
    4.0548   -0.1806    1.2668 C   0  0  0  0  0  0  0  0  0  0  0  0
    5.2739   -0.9701    1.7832 C   0  0  0  0  0  0  0  0  0  0  0  0
    6.5756   -0.7842    0.9787 C   0  0  0  0  0  0  0  0  0  0  0  0
    7.0777    0.6672    0.8782 C   0  0  0  0  0  0  0  0  0  0  0  0
    7.3999    1.2827    2.2392 C   0  0  0  0  0  0  0  0  0  0  0  0
    2.1444   -0.1514   -0.3768 C   0  0  0  0  0  0  0  0  0  0  0  0
    1.4545   -0.5581   -1.4524 C   0  0  0  0  0  0  0  0  0  0  0  0
    0.0554   -0.0524   -1.7144 C   0  0  1  0  0  0  0  0  0  0  0  0
   -0.3996   -0.4654   -3.0718 C   0  0  0  0  0  0  0  0  0  0  0  0
    0.0709   -0.0038   -4.1000 O   0  0  0  0  0  0  0  0  0  0  0  0
   -1.4942   -1.4669   -3.0694 C   0  0  0  0  0  0  0  0  0  0  0  0
   -1.6284   -1.8561   -1.5983 C   0  0  2  0  0  0  0  0  0  0  0  0
   -2.9729   -2.0835   -1.2645 O   0  0  0  0  0  0  0  0  0  0  0  0
   -0.9799   -0.7121   -0.7727 C   0  0  2  0  0  0  0  0  0  0  0  0
   -1.9918    0.3160   -0.2014 C   0  0  0  0  0  0  0  0  0  0  0  0
   -2.8434    0.9812   -1.2642 C   0  0  0  0  0  0  0  0  0  0  0  0
   -4.1814    1.1060   -1.2042 C   0  0  0  0  0  0  0  0  0  0  0  0
   -5.0233    0.5715   -0.0727 C   0  0  0  0  0  0  0  0  0  0  0  0
   -6.5083    0.8984   -0.2846 C   0  0  0  0  0  0  0  0  0  0  0  0
   -7.3953    0.3108    0.8207 C   0  0  0  0  0  0  0  0  0  0  0  0
   -7.1642    0.9891    2.1361 C   0  0  0  0  0  0  0  0  0  0  0  0
   -7.6918    2.2561    2.3640 O   0  0  0  0  0  0  0  0  0  0  0  0
   -6.4713    0.4258    3.0252 O   0  0  0  0  0  0  0  0  0  0  0  0
    3.5023   -1.7715   -0.1033 H   0  0  0  0  0  0  0  0  0  0  0  0
    4.3962    0.7397   -1.1681 H   0  0  0  0  0  0  0  0  0  0  0  0
    3.2432   -0.3283    2.0136 H   0  0  0  0  0  0  0  0  0  0  0  0
    4.2668    0.9091    1.2491 H   0  0  0  0  0  0  0  0  0  0  0  0
    5.0212   -2.0527    1.7946 H   0  0  0  0  0  0  0  0  0  0  0  0
    5.4579   -0.6867    2.8414 H   0  0  0  0  0  0  0  0  0  0  0  0
    6.4443   -1.1947   -0.0437 H   0  0  0  0  0  0  0  0  0  0  0  0
    7.3686   -1.3994    1.4571 H   0  0  0  0  0  0  0  0  0  0  0  0
    6.3421    1.3033    0.3445 H   0  0  0  0  0  0  0  0  0  0  0  0
    8.0070    0.6684    0.2684 H   0  0  0  0  0  0  0  0  0  0  0  0
    7.8928    2.2667    2.0918 H   0  0  0  0  0  0  0  0  0  0  0  0
    6.4709    1.4474    2.8237 H   0  0  0  0  0  0  0  0  0  0  0  0
    8.0877    0.6243    2.8111 H   0  0  0  0  0  0  0  0  0  0  0  0
    1.6847    0.5488    0.3171 H   0  0  0  0  0  0  0  0  0  0  0  0
    1.9131   -1.2597   -2.1462 H   0  0  0  0  0  0  0  0  0  0  0  0
    0.0457    1.0582   -1.6420 H   0  0  0  0  0  0  0  0  0  0  0  0
   -2.4258   -0.9985   -3.4550 H   0  0  0  0  0  0  0  0  0  0  0  0
   -1.2243   -2.3477   -3.6911 H   0  0  0  0  0  0  0  0  0  0  0  0
   -1.0390   -2.7903   -1.4367 H   0  0  0  0  0  0  0  0  0  0  0  0
   -2.9702   -2.5368   -0.3814 H   0  0  0  0  0  0  0  0  0  0  0  0
   -0.4707   -1.1667    0.1078 H   0  0  0  0  0  0  0  0  0  0  0  0
   -2.6097   -0.1945    0.5651 H   0  0  0  0  0  0  0  0  0  0  0  0
   -1.4307    1.1106    0.3355 H   0  0  0  0  0  0  0  0  0  0  0  0
   -2.3367    1.4444   -2.1051 H   0  0  0  0  0  0  0  0  0  0  0  0
   -4.6736    1.6321   -2.0184 H   0  0  0  0  0  0  0  0  0  0  0  0
   -4.8994   -0.5313   -0.0144 H   0  0  0  0  0  0  0  0  0  0  0  0
   -4.6772    1.0287    0.8792 H   0  0  0  0  0  0  0  0  0  0  0  0
   -6.6505    2.0010   -0.3328 H   0  0  0  0  0  0  0  0  0  0  0  0
   -6.8369    0.4700   -1.2572 H   0  0  0  0  0  0  0  0  0  0  0  0
   -7.2140   -0.7824    0.9150 H   0  0  0  0  0  0  0  0  0  0  0  0
   -8.4607    0.4485    0.5370 H   0  0  0  0  0  0  0  0  0  0  0  0
   -7.5346    2.7336    3.2435 H   0  0  0  0  0  0  0  0  0  0  0  0
  1  2  1  0
  1  3  1  0
  3  4  1  0
  4  5  1  0
  5  6  1  0
  6  7  1  0
  1  8  1  0
  8  9  2  0
  9 10  1  0
 10 11  1  0
 11 12  2  0
 11 13  1  0
 13 14  1  0
 14 15  1  0
 14 16  1  0
 16 17  1  0
 17 18  1  0
 18 19  2  0
 19 20  1  0
 20 21  1  0
 21 22  1  0
 22 23  1  0
 23 24  1  0
 23 25  2  0
 16 10  1  0
  1 26  1  1
  2 27  1  0
  3 28  1  0
  3 29  1  0
  4 30  1  0
  4 31  1  0
  5 32  1  0
  5 33  1  0
  6 34  1  0
  6 35  1  0
  7 36  1  0
  7 37  1  0
  7 38  1  0
  8 39  1  0
  9 40  1  0
 10 41  1  6
 13 42  1  0
 13 43  1  0
 14 44  1  6
 15 45  1  0
 16 46  1  1
 17 47  1  0
 17 48  1  0
 18 49  1  0
 19 50  1  0
 20 51  1  0
 20 52  1  0
 21 53  1  0
 21 54  1  0
 22 55  1  0
 22 56  1  0
 24 57  1  0
M  END
$$$$
