
     RDKit          3D

 98102  0  0  0  0  0  0  0  0999 V2000
   -4.7833    5.4545   -0.0166 C   0  0  0  0  0  0  0  0  0  0  0  0
   -4.3788    4.0955   -0.6010 C   0  0  0  0  0  0  0  0  0  0  0  0
   -2.8475    3.9867   -0.6605 C   0  0  0  0  0  0  0  0  0  0  0  0
   -4.9958    2.9548    0.2337 C   0  0  0  0  0  0  0  0  0  0  0  0
   -4.8280    1.6253   -0.4340 C   0  0  0  0  0  0  0  0  0  0  0  0
   -5.7054    1.2152   -1.2419 O   0  0  0  0  0  0  0  0  0  0  0  0
   -3.6740    0.8748   -0.1853 O   0  0  0  0  0  0  0  0  0  0  0  0
   -3.4601   -0.4473   -0.6828 C   0  0  1  0  0  0  0  0  0  0  0  0
   -1.9464   -0.6991   -0.7808 C   0  0  1  0  0  0  0  0  0  0  0  0
   -1.3166   -0.3859    0.4556 O   0  0  0  0  0  0  0  0  0  0  0  0
   -0.1598    0.4208    0.2966 C   0  0  2  0  0  0  0  0  0  0  0  0
    1.0209   -0.4393   -0.2150 C   0  0  0  0  0  0  0  0  0  0  0  0
    2.4008    0.2916   -0.2477 C   0  0  2  0  0  0  0  0  0  0  0  0
    2.3588    1.3619   -1.3826 C   0  0  0  0  0  0  0  0  0  0  0  0
    3.5402   -0.7966   -0.4841 C   0  0  1  0  0  0  0  0  0  0  0  0
    3.4328   -1.6051   -1.8209 C   0  0  0  0  0  0  0  0  0  0  0  0
    4.6025   -2.6054   -2.0118 C   0  0  0  0  0  0  0  0  0  0  0  0
    5.9663   -1.9955   -1.6149 C   0  0  2  0  0  0  0  0  0  0  0  0
    5.9010   -1.5722   -0.1573 C   0  0  0  0  0  0  0  0  0  0  0  0
    5.0235   -0.3056   -0.2194 C   0  0  2  0  0  0  0  0  0  0  0  0
    5.1309    0.4491    1.1316 C   0  0  0  0  0  0  0  0  0  0  0  0
    4.0709    1.5393    1.2836 C   0  0  0  0  0  0  0  0  0  0  0  0
    2.6488    0.9292    1.1687 C   0  0  1  0  0  0  0  0  0  0  0  0
    1.4894    1.8478    1.7112 C   0  0  0  0  0  0  0  0  0  0  0  0
    0.1641    1.0332    1.6684 C   0  0  0  0  0  0  0  0  0  0  0  0
    1.7239    2.1866    3.1795 C   0  0  0  0  0  0  0  0  0  0  0  0
    2.3002    1.2483    4.0336 O   0  0  0  0  0  0  0  0  0  0  0  0
    1.3216    3.2827    3.6593 O   0  0  0  0  0  0  0  0  0  0  0  0
    1.3787    3.1620    0.9427 C   0  0  0  0  0  0  0  0  0  0  0  0
    2.4781    4.0103    0.8492 O   0  0  0  0  0  0  0  0  0  0  0  0
    0.2783    3.5392    0.4562 O   0  0  0  0  0  0  0  0  0  0  0  0
    5.6416    0.4458   -1.4459 C   0  0  1  0  0  0  0  0  0  0  0  0
    6.7097    1.2742   -1.0618 O   0  0  0  0  0  0  0  0  0  0  0  0
    6.1597   -0.6784   -2.2939 C   0  0  0  0  0  0  0  0  0  0  0  0
    6.6482   -0.5326   -3.5305 C   0  0  0  0  0  0  0  0  0  0  0  0
   -1.6395   -2.0287   -1.1829 O   0  0  0  0  0  0  0  0  0  0  0  0
   -2.2228   -3.0434   -0.3706 C   0  0  1  0  0  0  0  0  0  0  0  0
   -1.4721   -3.2442    0.9614 C   0  0  0  0  0  0  0  0  0  0  0  0
   -1.8076   -4.4950    1.5086 O   0  0  0  0  0  0  0  0  0  0  0  0
   -1.1217   -4.5998    2.6318 O   0  0  0  0  0  0  0  0  0  0  0  0
   -3.7545   -2.8894   -0.2054 C   0  0  2  0  0  0  0  0  0  0  0  0
   -4.3765   -3.1424   -1.4537 O   0  0  0  0  0  0  0  0  0  0  0  0
   -5.1891   -4.6303   -1.4131 S   0  0  0  0  0  6  0  0  0  0  0  0
   -6.4075   -4.5790   -0.2543 O   0  0  0  0  0  0  0  0  0  0  0  0
   -4.2230   -5.7372   -1.0922 O   0  0  0  0  0  0  0  0  0  0  0  0
   -5.8011   -4.8839   -2.7616 O   0  0  0  0  0  0  0  0  0  0  0  0
   -4.1173   -1.4700    0.2519 C   0  0  2  0  0  0  0  0  0  0  0  0
   -5.5226   -1.3102    0.1963 O   0  0  0  0  0  0  0  0  0  0  0  0
   -6.1757   -1.3163    1.7610 S   0  0  0  0  0  6  0  0  0  0  0  0
   -5.5704   -0.0104    2.6318 O   0  0  0  0  0  0  0  0  0  0  0  0
   -5.8322   -2.6024    2.4603 O   0  0  0  0  0  0  0  0  0  0  0  0
   -7.6696   -1.1923    1.6605 O   0  0  0  0  0  0  0  0  0  0  0  0
   -4.3635    6.2785   -0.6324 H   0  0  0  0  0  0  0  0  0  0  0  0
   -5.8894    5.5583   -0.0150 H   0  0  0  0  0  0  0  0  0  0  0  0
   -4.4112    5.5593    1.0255 H   0  0  0  0  0  0  0  0  0  0  0  0
   -4.7768    4.0409   -1.6390 H   0  0  0  0  0  0  0  0  0  0  0  0
   -2.5407    3.0547   -1.1794 H   0  0  0  0  0  0  0  0  0  0  0  0
   -2.4224    4.8417   -1.2284 H   0  0  0  0  0  0  0  0  0  0  0  0
   -2.4176    3.9884    0.3639 H   0  0  0  0  0  0  0  0  0  0  0  0
   -4.5285    2.9202    1.2422 H   0  0  0  0  0  0  0  0  0  0  0  0
   -6.0831    3.1397    0.3782 H   0  0  0  0  0  0  0  0  0  0  0  0
   -3.8890   -0.5399   -1.7070 H   0  0  0  0  0  0  0  0  0  0  0  0
   -1.6033   -0.0384   -1.6114 H   0  0  0  0  0  0  0  0  0  0  0  0
   -0.3741    1.2604   -0.3967 H   0  0  0  0  0  0  0  0  0  0  0  0
    0.7726   -0.7972   -1.2361 H   0  0  0  0  0  0  0  0  0  0  0  0
    1.0898   -1.3364    0.4377 H   0  0  0  0  0  0  0  0  0  0  0  0
    1.4374    1.9661   -1.3603 H   0  0  0  0  0  0  0  0  0  0  0  0
    3.1823    2.0919   -1.3237 H   0  0  0  0  0  0  0  0  0  0  0  0
    2.3602    0.9030   -2.3875 H   0  0  0  0  0  0  0  0  0  0  0  0
    3.3541   -1.5635    0.3038 H   0  0  0  0  0  0  0  0  0  0  0  0
    3.4347   -0.9276   -2.6959 H   0  0  0  0  0  0  0  0  0  0  0  0
    2.4838   -2.1799   -1.8495 H   0  0  0  0  0  0  0  0  0  0  0  0
    4.4145   -3.5122   -1.3961 H   0  0  0  0  0  0  0  0  0  0  0  0
    4.6377   -2.9307   -3.0743 H   0  0  0  0  0  0  0  0  0  0  0  0
    6.8080   -2.6993   -1.7956 H   0  0  0  0  0  0  0  0  0  0  0  0
    6.9256   -1.3289    0.2089 H   0  0  0  0  0  0  0  0  0  0  0  0
    5.4866   -2.3694    0.4998 H   0  0  0  0  0  0  0  0  0  0  0  0
    5.0037   -0.2754    1.9673 H   0  0  0  0  0  0  0  0  0  0  0  0
    6.1393    0.8941    1.2680 H   0  0  0  0  0  0  0  0  0  0  0  0
    4.2108    2.0061    2.2809 H   0  0  0  0  0  0  0  0  0  0  0  0
    4.2602    2.3303    0.5349 H   0  0  0  0  0  0  0  0  0  0  0  0
    2.6545    0.0617    1.8706 H   0  0  0  0  0  0  0  0  0  0  0  0
    0.2212    0.1994    2.4058 H   0  0  0  0  0  0  0  0  0  0  0  0
   -0.6886    1.6742    1.9876 H   0  0  0  0  0  0  0  0  0  0  0  0
    2.4325    1.4516    5.0170 H   0  0  0  0  0  0  0  0  0  0  0  0
    2.4119    4.8971    0.3643 H   0  0  0  0  0  0  0  0  0  0  0  0
    4.8941    1.0179   -2.0235 H   0  0  0  0  0  0  0  0  0  0  0  0
    6.8765    1.8987   -1.8153 H   0  0  0  0  0  0  0  0  0  0  0  0
    6.7249    0.4520   -3.9805 H   0  0  0  0  0  0  0  0  0  0  0  0
    6.9700   -1.3982   -4.1006 H   0  0  0  0  0  0  0  0  0  0  0  0
   -2.0693   -3.9922   -0.9303 H   0  0  0  0  0  0  0  0  0  0  0  0
   -0.3787   -3.2121    0.7585 H   0  0  0  0  0  0  0  0  0  0  0  0
   -1.7288   -2.4428    1.6860 H   0  0  0  0  0  0  0  0  0  0  0  0
   -1.7965   -4.4997    3.3516 H   0  0  0  0  0  0  0  0  0  0  0  0
   -4.0962   -3.5801    0.6010 H   0  0  0  0  0  0  0  0  0  0  0  0
   -6.8213   -5.4785   -0.2783 H   0  0  0  0  0  0  0  0  0  0  0  0
   -3.6983   -1.3003    1.2716 H   0  0  0  0  0  0  0  0  0  0  0  0
   -6.0019   -0.0740    3.5211 H   0  0  0  0  0  0  0  0  0  0  0  0
  1  2  1  0
  2  3  1  0
  2  4  1  0
  4  5  1  0
  5  6  2  0
  5  7  1  0
  7  8  1  0
  8  9  1  0
  9 10  1  0
 10 11  1  0
 11 12  1  0
 12 13  1  0
 13 14  1  6
 13 15  1  0
 15 16  1  0
 16 17  1  0
 17 18  1  0
 18 19  1  0
 19 20  1  0
 20 21  1  1
 21 22  1  0
 22 23  1  0
 23 24  1  0
 24 25  1  0
 24 26  1  0
 26 27  1  0
 26 28  2  0
 24 29  1  0
 29 30  1  0
 29 31  2  0
 20 32  1  0
 32 33  1  0
 32 34  1  0
 34 35  2  3
  9 36  1  0
 36 37  1  0
 37 38  1  0
 38 39  1  0
 39 40  1  0
 37 41  1  0
 41 42  1  0
 42 43  1  0
 43 44  1  0
 43 45  2  0
 43 46  2  0
 41 47  1  0
 47 48  1  0
 48 49  1  0
 49 50  1  0
 49 51  2  0
 49 52  2  0
 47  8  1  0
 25 11  1  0
 23 13  1  0
 20 15  1  0
 34 18  1  0
  1 53  1  0
  1 54  1  0
  1 55  1  0
  2 56  1  0
  3 57  1  0
  3 58  1  0
  3 59  1  0
  4 60  1  0
  4 61  1  0
  8 62  1  6
  9 63  1  6
 11 64  1  6
 12 65  1  0
 12 66  1  0
 14 67  1  0
 14 68  1  0
 14 69  1  0
 15 70  1  1
 16 71  1  0
 16 72  1  0
 17 73  1  0
 17 74  1  0
 18 75  1  1
 19 76  1  0
 19 77  1  0
 21 78  1  0
 21 79  1  0
 22 80  1  0
 22 81  1  0
 23 82  1  1
 25 83  1  0
 25 84  1  0
 27 85  1  0
 30 86  1  0
 32 87  1  6
 33 88  1  0
 35 89  1  0
 35 90  1  0
 37 91  1  6
 38 92  1  0
 38 93  1  0
 40 94  1  0
 41 95  1  1
 44 96  1  0
 47 97  1  1
 50 98  1  0
M  END
$$$$
