
     RDKit          3D

 48 50  0  0  0  0  0  0  0  0999 V2000
    6.0960   -2.7856    1.3456 C   0  0  0  0  0  0  0  0  0  0  0  0
    5.4537   -1.6622    0.5317 C   0  0  0  0  0  0  0  0  0  0  0  0
    4.0039   -1.4265    0.8874 C   0  0  0  0  0  0  0  0  0  0  0  0
    3.5224   -1.9707    1.9200 O   0  0  0  0  0  0  0  0  0  0  0  0
    3.1371   -0.5421    0.0606 C   0  0  0  0  0  0  0  0  0  0  0  0
    1.7547   -0.4668    0.3226 C   0  0  0  0  0  0  0  0  0  0  0  0
    0.9180    0.3593   -0.4489 C   0  0  0  0  0  0  0  0  0  0  0  0
    1.4781    1.1284   -1.4831 C   0  0  0  0  0  0  0  0  0  0  0  0
    0.4061    2.1230   -2.5248 S   0  0  0  0  0  0  0  0  0  0  0  0
   -0.5048    2.7946   -1.1307 C   0  0  0  0  0  0  0  0  0  0  0  0
   -0.8181    4.1569   -1.0864 C   0  0  0  0  0  0  0  0  0  0  0  0
   -1.6109    4.6572   -0.0505 C   0  0  0  0  0  0  0  0  0  0  0  0
   -2.0856    3.7991    0.9452 C   0  0  0  0  0  0  0  0  0  0  0  0
   -1.7542    2.4409    0.9198 C   0  0  0  0  0  0  0  0  0  0  0  0
   -0.9562    1.9262   -0.1183 C   0  0  0  0  0  0  0  0  0  0  0  0
   -0.4662    0.5656   -0.0879 N   0  0  0  0  0  0  0  0  0  0  0  0
   -1.2921   -0.5449    0.4214 C   0  0  0  0  0  0  0  0  0  0  0  0
   -2.6622   -0.6448   -0.3104 C   0  0  0  0  0  0  0  0  0  0  0  0
   -2.4028   -0.8320   -1.8235 C   0  0  0  0  0  0  0  0  0  0  0  0
   -3.4873   -1.7682    0.2324 N   0  0  0  0  0  0  0  0  0  0  0  0
   -3.7605   -1.5973    1.6756 C   0  0  0  0  0  0  0  0  0  0  0  0
   -4.7789   -1.8855   -0.4775 C   0  0  0  0  0  0  0  0  0  0  0  0
    2.8505    1.0842   -1.7313 C   0  0  0  0  0  0  0  0  0  0  0  0
    3.6748    0.2518   -0.9716 C   0  0  0  0  0  0  0  0  0  0  0  0
    5.5455   -3.7380    1.1898 H   0  0  0  0  0  0  0  0  0  0  0  0
    6.0953   -2.5296    2.4267 H   0  0  0  0  0  0  0  0  0  0  0  0
    7.1476   -2.9265    1.0180 H   0  0  0  0  0  0  0  0  0  0  0  0
    5.5266   -1.9307   -0.5441 H   0  0  0  0  0  0  0  0  0  0  0  0
    6.0250   -0.7249    0.7029 H   0  0  0  0  0  0  0  0  0  0  0  0
    1.3346   -1.0215    1.1514 H   0  0  0  0  0  0  0  0  0  0  0  0
   -0.4703    4.8225   -1.8660 H   0  0  0  0  0  0  0  0  0  0  0  0
   -1.8625    5.7095   -0.0223 H   0  0  0  0  0  0  0  0  0  0  0  0
   -2.6963    4.1908    1.7485 H   0  0  0  0  0  0  0  0  0  0  0  0
   -2.0953    1.8061    1.7258 H   0  0  0  0  0  0  0  0  0  0  0  0
   -0.7680   -1.5157    0.2830 H   0  0  0  0  0  0  0  0  0  0  0  0
   -1.4180   -0.3947    1.5107 H   0  0  0  0  0  0  0  0  0  0  0  0
   -3.2098    0.3149   -0.1761 H   0  0  0  0  0  0  0  0  0  0  0  0
   -1.6639   -0.1002   -2.2069 H   0  0  0  0  0  0  0  0  0  0  0  0
   -3.3292   -0.6571   -2.4080 H   0  0  0  0  0  0  0  0  0  0  0  0
   -2.0237   -1.8562   -2.0267 H   0  0  0  0  0  0  0  0  0  0  0  0
   -4.5481   -2.2981    2.0291 H   0  0  0  0  0  0  0  0  0  0  0  0
   -2.8624   -1.8613    2.2695 H   0  0  0  0  0  0  0  0  0  0  0  0
   -4.0815   -0.5576    1.9086 H   0  0  0  0  0  0  0  0  0  0  0  0
   -5.3097   -0.9083   -0.5146 H   0  0  0  0  0  0  0  0  0  0  0  0
   -4.6233   -2.2708   -1.5057 H   0  0  0  0  0  0  0  0  0  0  0  0
   -5.4399   -2.6345    0.0103 H   0  0  0  0  0  0  0  0  0  0  0  0
    3.2785    1.6798   -2.5277 H   0  0  0  0  0  0  0  0  0  0  0  0
    4.7332    0.2417   -1.1937 H   0  0  0  0  0  0  0  0  0  0  0  0
  1  2  1  0
  2  3  1  0
  3  4  2  0
  3  5  1  0
  5  6  2  0
  6  7  1  0
  7  8  2  0
  8  9  1  0
  9 10  1  0
 10 11  2  0
 11 12  1  0
 12 13  2  0
 13 14  1  0
 14 15  2  0
 15 16  1  0
 16 17  1  0
 17 18  1  0
 18 19  1  0
 18 20  1  0
 20 21  1  0
 20 22  1  0
  8 23  1  0
 23 24  2  0
 24  5  1  0
 16  7  1  0
 15 10  1  0
  1 25  1  0
  1 26  1  0
  1 27  1  0
  2 28  1  0
  2 29  1  0
  6 30  1  0
 11 31  1  0
 12 32  1  0
 13 33  1  0
 14 34  1  0
 17 35  1  0
 17 36  1  0
 18 37  1  0
 19 38  1  0
 19 39  1  0
 19 40  1  0
 21 41  1  0
 21 42  1  0
 21 43  1  0
 22 44  1  0
 22 45  1  0
 22 46  1  0
 23 47  1  0
 24 48  1  0
M  END
$$$$
