
     RDKit          3D

 27 27  0  0  0  0  0  0  0  0999 V2000
    3.2862    0.6440    0.0036 C   0  0  0  0  0  0  0  0  0  0  0  0
    2.2535    0.6123   -0.9574 O   0  0  0  0  0  0  0  0  0  0  0  0
    1.0153    0.2523   -0.3663 C   0  0  1  0  0  0  0  0  0  0  0  0
    0.0085    1.0637   -0.9459 O   0  0  0  0  0  0  0  0  0  0  0  0
   -1.2544    0.9227   -0.2969 C   0  0  2  0  0  0  0  0  0  0  0  0
   -1.4077    1.9585    0.8261 C   0  0  0  0  0  0  0  0  0  0  0  0
   -1.2115    3.2464    0.3115 O   0  0  0  0  0  0  0  0  0  0  0  0
   -1.5551   -0.5195    0.2011 C   0  0  1  0  0  0  0  0  0  0  0  0
   -2.9386   -0.7585    0.1377 O   0  0  0  0  0  0  0  0  0  0  0  0
   -0.7973   -1.5248   -0.6868 C   0  0  2  0  0  0  0  0  0  0  0  0
   -1.0877   -2.8567   -0.3357 O   0  0  0  0  0  0  0  0  0  0  0  0
    0.7286   -1.2418   -0.6599 C   0  0  2  0  0  0  0  0  0  0  0  0
    1.3683   -2.0246    0.3173 O   0  0  0  0  0  0  0  0  0  0  0  0
    3.1107    1.4549    0.7446 H   0  0  0  0  0  0  0  0  0  0  0  0
    4.2438    0.8605   -0.5125 H   0  0  0  0  0  0  0  0  0  0  0  0
    3.3936   -0.3363    0.5171 H   0  0  0  0  0  0  0  0  0  0  0  0
    1.0147    0.4147    0.7422 H   0  0  0  0  0  0  0  0  0  0  0  0
   -2.0212    1.1695   -1.0650 H   0  0  0  0  0  0  0  0  0  0  0  0
   -2.4317    1.8841    1.2568 H   0  0  0  0  0  0  0  0  0  0  0  0
   -0.6702    1.7629    1.6354 H   0  0  0  0  0  0  0  0  0  0  0  0
   -1.3235    3.8687    1.0765 H   0  0  0  0  0  0  0  0  0  0  0  0
   -1.1985   -0.6299    1.2540 H   0  0  0  0  0  0  0  0  0  0  0  0
   -3.1334   -1.5020    0.7660 H   0  0  0  0  0  0  0  0  0  0  0  0
   -1.1514   -1.3772   -1.7319 H   0  0  0  0  0  0  0  0  0  0  0  0
   -0.9494   -2.9521    0.6429 H   0  0  0  0  0  0  0  0  0  0  0  0
    1.1399   -1.4881   -1.6687 H   0  0  0  0  0  0  0  0  0  0  0  0
    1.5686   -2.9037   -0.0987 H   0  0  0  0  0  0  0  0  0  0  0  0
  1  2  1  0
  2  3  1  0
  3  4  1  0
  4  5  1  0
  5  6  1  0
  6  7  1  0
  5  8  1  0
  8  9  1  0
  8 10  1  0
 10 11  1  0
 10 12  1  0
 12 13  1  0
 12  3  1  0
  1 14  1  0
  1 15  1  0
  1 16  1  0
  3 17  1  1
  5 18  1  6
  6 19  1  0
  6 20  1  0
  7 21  1  0
  8 22  1  1
  9 23  1  0
 10 24  1  6
 11 25  1  0
 12 26  1  6
 13 27  1  0
M  END
$$$$
