
     RDKit          3D

 33 34  0  0  0  0  0  0  0  0999 V2000
    4.3204   -1.0930    0.6910 N   0  0  0  0  0  0  0  0  0  0  0  0
    4.7508    0.1946    0.6447 C   0  0  0  0  0  0  0  0  0  0  0  0
    5.9431    0.4746    0.9401 O   0  0  0  0  0  0  0  0  0  0  0  0
    3.8700    1.2050    0.2753 C   0  0  0  0  0  0  0  0  0  0  0  0
    2.5596    0.8632   -0.0464 C   0  0  0  0  0  0  0  0  0  0  0  0
    2.1496   -0.4428   -0.0151 N   0  0  0  0  0  0  0  0  0  0  0  0
    0.7453   -0.7795   -0.3289 C   0  0  2  0  0  0  0  0  0  0  0  0
    0.2491    0.0395   -1.3657 O   0  0  0  0  0  0  0  0  0  0  0  0
   -1.0760    0.4050   -1.0329 C   0  0  2  0  0  0  0  0  0  0  0  0
   -1.1575    1.9369   -0.9330 C   0  0  0  0  0  0  0  0  0  0  0  0
   -2.4839    2.3567   -0.7579 O   0  0  0  0  0  0  0  0  0  0  0  0
   -1.4783   -0.2803    0.2828 C   0  0  1  0  0  0  0  0  0  0  0  0
   -2.1640   -1.4891    0.0084 O   0  0  0  0  0  0  0  0  0  0  0  0
   -3.8469   -1.2557    0.1778 P   0  0  0  0  0  5  0  0  0  0  0  0
   -4.3784   -0.0078   -0.8359 O   0  0  0  0  0  0  0  0  0  0  0  0
   -4.2167   -0.8840    1.7882 O   0  0  0  0  0  0  0  0  0  0  0  0
   -4.5570   -2.5352   -0.2009 O   0  0  0  0  0  0  0  0  0  0  0  0
   -0.1404   -0.6008    0.8905 C   0  0  1  0  0  0  0  0  0  0  0  0
   -0.1782   -1.7503    1.6640 F   0  0  0  0  0  0  0  0  0  0  0  0
    3.0356   -1.4178    0.3756 C   0  0  0  0  0  0  0  0  0  0  0  0
    2.6719   -2.6239    0.4512 O   0  0  0  0  0  0  0  0  0  0  0  0
    4.9861   -1.8466    0.9791 H   0  0  0  0  0  0  0  0  0  0  0  0
    4.1906    2.2391    0.2419 H   0  0  0  0  0  0  0  0  0  0  0  0
    1.8729    1.6547   -0.3184 H   0  0  0  0  0  0  0  0  0  0  0  0
    0.6680   -1.8318   -0.6859 H   0  0  0  0  0  0  0  0  0  0  0  0
   -1.7440    0.0748   -1.8580 H   0  0  0  0  0  0  0  0  0  0  0  0
   -0.7287    2.3981   -1.8521 H   0  0  0  0  0  0  0  0  0  0  0  0
   -0.5542    2.2915   -0.0703 H   0  0  0  0  0  0  0  0  0  0  0  0
   -2.9204    2.2968   -1.6476 H   0  0  0  0  0  0  0  0  0  0  0  0
   -2.0255    0.3991    0.9795 H   0  0  0  0  0  0  0  0  0  0  0  0
   -4.2232   -0.3432   -1.7547 H   0  0  0  0  0  0  0  0  0  0  0  0
   -4.3488    0.0973    1.8022 H   0  0  0  0  0  0  0  0  0  0  0  0
    0.2090    0.2549    1.5111 H   0  0  0  0  0  0  0  0  0  0  0  0
  1  2  1  0
  2  3  2  0
  2  4  1  0
  4  5  2  0
  5  6  1  0
  6  7  1  0
  7  8  1  0
  8  9  1  0
  9 10  1  0
 10 11  1  0
  9 12  1  0
 12 13  1  0
 13 14  1  0
 14 15  1  0
 14 16  1  0
 14 17  2  0
 12 18  1  0
 18 19  1  0
  6 20  1  0
 20 21  2  0
 20  1  1  0
 18  7  1  0
  1 22  1  0
  4 23  1  0
  5 24  1  0
  7 25  1  6
  9 26  1  6
 10 27  1  0
 10 28  1  0
 11 29  1  0
 12 30  1  1
 15 31  1  0
 16 32  1  0
 18 33  1  1
M  END
$$$$
