
     RDKit          3D

 71 76  0  0  0  0  0  0  0  0999 V2000
    0.6561    0.9007   -0.3712 C   0  0  2  0  0  0  0  0  0  0  0  0
    0.0904    2.2756   -0.6873 C   0  0  0  0  0  0  0  0  0  0  0  0
   -1.4237    2.1152   -0.4335 C   0  0  1  0  0  0  0  0  0  0  0  0
   -2.0964    1.9840   -1.6490 O   0  0  0  0  0  0  0  0  0  0  0  0
   -2.5500    0.6509   -1.7136 C   0  0  0  0  0  0  0  0  0  0  0  0
   -4.0711    0.6088   -1.7936 C   0  0  0  0  0  0  0  0  0  0  0  0
   -4.4031   -0.6772   -2.5346 C   0  0  0  0  0  0  0  0  0  0  0  0
   -3.1720   -1.0252   -3.3692 C   0  0  0  0  0  0  0  0  0  0  0  0
   -2.0920   -0.0090   -3.0101 C   0  0  0  0  0  0  0  0  0  0  0  0
   -2.0977   -0.1097   -0.6122 O   0  0  0  0  0  0  0  0  0  0  0  0
   -1.6235    0.8027    0.3390 C   0  0  2  0  0  0  0  0  0  0  0  0
   -2.6503    0.9053    1.4709 C   0  0  0  0  0  0  0  0  0  0  0  0
   -2.8129    1.9662    2.0580 O   0  0  0  0  0  0  0  0  0  0  0  0
   -3.4010   -0.3185    1.9423 C   0  0  0  0  0  0  0  0  0  0  0  0
   -4.3636    0.0088    2.9447 O   0  0  0  0  0  0  0  0  0  0  0  0
   -5.5708    0.6615    2.6715 C   0  0  0  0  0  0  0  0  0  0  0  0
   -6.5122    0.9608    3.7878 C   0  0  0  0  0  0  0  0  0  0  0  0
   -5.8902    0.9615    1.4895 O   0  0  0  0  0  0  0  0  0  0  0  0
   -0.1836    0.4095    0.8148 C   0  0  2  0  0  0  0  0  0  0  0  0
    0.1451    1.1595    2.1504 C   0  0  0  0  0  0  0  0  0  0  0  0
    0.0792   -1.1125    0.9737 C   0  0  0  0  0  0  0  0  0  0  0  0
    1.5912   -1.4497    1.1371 C   0  0  2  0  0  0  0  0  0  0  0  0
    2.0269   -1.0892    2.4202 O   0  0  0  0  0  0  0  0  0  0  0  0
    2.4911   -0.8045    0.0175 C   0  0  1  0  0  0  0  0  0  0  0  0
    2.1171   -1.4391   -1.1643 F   0  0  0  0  0  0  0  0  0  0  0  0
    2.1793    0.7297   -0.1667 C   0  0  1  0  0  0  0  0  0  0  0  0
    2.9520    1.3060   -1.3740 C   0  0  0  0  0  0  0  0  0  0  0  0
    4.4575    1.0905   -1.2320 C   0  0  0  0  0  0  0  0  0  0  0  0
    4.7479   -0.3716   -1.0036 C   0  0  0  0  0  0  0  0  0  0  0  0
    5.6119   -1.0069   -1.8118 C   0  0  0  0  0  0  0  0  0  0  0  0
    5.8758   -2.4362   -1.6540 C   0  0  0  0  0  0  0  0  0  0  0  0
    6.7030   -3.0150   -2.4063 O   0  0  0  0  0  0  0  0  0  0  0  0
    5.1612   -3.1918   -0.6290 C   0  0  0  0  0  0  0  0  0  0  0  0
    4.3046   -2.5809    0.1901 C   0  0  0  0  0  0  0  0  0  0  0  0
    4.0459   -1.0723    0.1731 C   0  0  2  0  0  0  0  0  0  0  0  0
    4.6616   -0.5080    1.4786 C   0  0  0  0  0  0  0  0  0  0  0  0
    0.4020    0.2788   -1.2609 H   0  0  0  0  0  0  0  0  0  0  0  0
    0.3013    2.5686   -1.7394 H   0  0  0  0  0  0  0  0  0  0  0  0
    0.5239    3.0415   -0.0082 H   0  0  0  0  0  0  0  0  0  0  0  0
   -1.8059    3.0122    0.0991 H   0  0  0  0  0  0  0  0  0  0  0  0
   -4.5433    0.6348   -0.7905 H   0  0  0  0  0  0  0  0  0  0  0  0
   -4.4423    1.4765   -2.3839 H   0  0  0  0  0  0  0  0  0  0  0  0
   -4.6028   -1.4891   -1.8006 H   0  0  0  0  0  0  0  0  0  0  0  0
   -5.3005   -0.5428   -3.1769 H   0  0  0  0  0  0  0  0  0  0  0  0
   -3.4053   -0.9758   -4.4554 H   0  0  0  0  0  0  0  0  0  0  0  0
   -2.8254   -2.0533   -3.1242 H   0  0  0  0  0  0  0  0  0  0  0  0
   -2.0217    0.7528   -3.8186 H   0  0  0  0  0  0  0  0  0  0  0  0
   -1.1018   -0.5006   -2.8996 H   0  0  0  0  0  0  0  0  0  0  0  0
   -3.9027   -0.8254    1.0909 H   0  0  0  0  0  0  0  0  0  0  0  0
   -2.6775   -1.0315    2.3830 H   0  0  0  0  0  0  0  0  0  0  0  0
   -7.0162    1.9343    3.6108 H   0  0  0  0  0  0  0  0  0  0  0  0
   -5.9571    1.0143    4.7478 H   0  0  0  0  0  0  0  0  0  0  0  0
   -7.2760    0.1583    3.8527 H   0  0  0  0  0  0  0  0  0  0  0  0
   -0.1485    2.2285    2.1028 H   0  0  0  0  0  0  0  0  0  0  0  0
   -0.4087    0.6961    2.9945 H   0  0  0  0  0  0  0  0  0  0  0  0
    1.2122    1.1453    2.4267 H   0  0  0  0  0  0  0  0  0  0  0  0
   -0.4804   -1.5090    1.8460 H   0  0  0  0  0  0  0  0  0  0  0  0
   -0.2964   -1.6595    0.0817 H   0  0  0  0  0  0  0  0  0  0  0  0
    1.6689   -2.5563    1.0359 H   0  0  0  0  0  0  0  0  0  0  0  0
    1.6448   -1.7497    3.0556 H   0  0  0  0  0  0  0  0  0  0  0  0
    2.4992    1.3070    0.7198 H   0  0  0  0  0  0  0  0  0  0  0  0
    2.6016    0.8340   -2.3188 H   0  0  0  0  0  0  0  0  0  0  0  0
    2.7662    2.3989   -1.4523 H   0  0  0  0  0  0  0  0  0  0  0  0
    4.9576    1.4728   -2.1492 H   0  0  0  0  0  0  0  0  0  0  0  0
    4.8436    1.6841   -0.3763 H   0  0  0  0  0  0  0  0  0  0  0  0
    6.1094   -0.4758   -2.6148 H   0  0  0  0  0  0  0  0  0  0  0  0
    5.3321   -4.2569   -0.5309 H   0  0  0  0  0  0  0  0  0  0  0  0
    3.8377   -3.1834    0.9585 H   0  0  0  0  0  0  0  0  0  0  0  0
    4.4185   -1.1355    2.3605 H   0  0  0  0  0  0  0  0  0  0  0  0
    4.3384    0.5300    1.6867 H   0  0  0  0  0  0  0  0  0  0  0  0
    5.7713   -0.5038    1.4041 H   0  0  0  0  0  0  0  0  0  0  0  0
  1  2  1  0
  2  3  1  0
  3  4  1  0
  4  5  1  0
  5  6  1  0
  6  7  1  0
  7  8  1  0
  8  9  1  0
  5 10  1  0
 10 11  1  0
 11 12  1  1
 12 13  2  0
 12 14  1  0
 14 15  1  0
 15 16  1  0
 16 17  1  0
 16 18  2  0
 11 19  1  0
 19 20  1  1
 19 21  1  0
 21 22  1  0
 22 23  1  0
 22 24  1  0
 24 25  1  6
 24 26  1  0
 26 27  1  0
 27 28  1  0
 28 29  1  0
 29 30  2  0
 30 31  1  0
 31 32  2  0
 31 33  1  0
 33 34  2  0
 34 35  1  0
 35 36  1  1
 19  1  1  0
 35 24  1  0
 26  1  1  0
 35 29  1  0
 11  3  1  0
  9  5  1  0
  1 37  1  6
  2 38  1  0
  2 39  1  0
  3 40  1  1
  6 41  1  0
  6 42  1  0
  7 43  1  0
  7 44  1  0
  8 45  1  0
  8 46  1  0
  9 47  1  0
  9 48  1  0
 14 49  1  0
 14 50  1  0
 17 51  1  0
 17 52  1  0
 17 53  1  0
 20 54  1  0
 20 55  1  0
 20 56  1  0
 21 57  1  0
 21 58  1  0
 22 59  1  1
 23 60  1  0
 26 61  1  1
 27 62  1  0
 27 63  1  0
 28 64  1  0
 28 65  1  0
 30 66  1  0
 33 67  1  0
 34 68  1  0
 36 69  1  0
 36 70  1  0
 36 71  1  0
M  END
$$$$
