
     RDKit          3D

 31 31  0  0  0  0  0  0  0  0999 V2000
    5.7064   -0.6640    0.0442 C   0  0  0  0  0  0  0  0  0  0  0  0
    4.6220   -1.2328   -0.7467 N   0  0  0  0  0  0  0  0  0  0  0  0
    3.3072   -0.6573   -0.8039 C   0  0  0  0  0  0  0  0  0  0  0  0
    2.1580   -1.4215   -1.6962 S   0  0  0  0  0  0  0  0  0  0  0  0
    3.0131    0.5805   -0.1242 N   0  0  0  0  0  0  0  0  0  0  0  0
    1.6680    1.1434    0.0006 C   0  0  0  0  0  0  0  0  0  0  0  0
    0.8651    0.3808    1.0551 C   0  0  0  0  0  0  0  0  0  0  0  0
   -0.8171    1.0774    1.2098 S   0  0  0  0  0  0  0  0  0  0  0  0
   -1.5644    0.0593   -0.1075 C   0  0  0  0  0  0  0  0  0  0  0  0
   -3.0064    0.4242   -0.2579 C   0  0  0  0  0  0  0  0  0  0  0  0
   -4.0625   -0.0552    0.4900 C   0  0  0  0  0  0  0  0  0  0  0  0
   -4.0102   -1.0986    1.5599 C   0  0  0  0  0  0  0  0  0  0  0  0
   -5.1840    0.5526    0.0730 N   0  0  0  0  0  0  0  0  0  0  0  0
   -4.7880    1.3974   -0.8987 C   0  0  0  0  0  0  0  0  0  0  0  0
   -3.4569    1.3523   -1.1261 N   0  0  0  0  0  0  0  0  0  0  0  0
    5.9706    0.3418   -0.3444 H   0  0  0  0  0  0  0  0  0  0  0  0
    6.6034   -1.3151   -0.0236 H   0  0  0  0  0  0  0  0  0  0  0  0
    5.4004   -0.5912    1.1092 H   0  0  0  0  0  0  0  0  0  0  0  0
    4.8101   -2.1181   -1.2698 H   0  0  0  0  0  0  0  0  0  0  0  0
    3.7954    1.1367    0.2856 H   0  0  0  0  0  0  0  0  0  0  0  0
    1.7475    2.2068    0.3156 H   0  0  0  0  0  0  0  0  0  0  0  0
    1.1567    1.1284   -0.9843 H   0  0  0  0  0  0  0  0  0  0  0  0
    1.3720    0.4861    2.0376 H   0  0  0  0  0  0  0  0  0  0  0  0
    0.8197   -0.7020    0.8157 H   0  0  0  0  0  0  0  0  0  0  0  0
   -1.4764   -1.0173    0.1500 H   0  0  0  0  0  0  0  0  0  0  0  0
   -1.0409    0.2366   -1.0698 H   0  0  0  0  0  0  0  0  0  0  0  0
   -4.9848   -1.1577    2.0882 H   0  0  0  0  0  0  0  0  0  0  0  0
   -3.2195   -0.8439    2.2962 H   0  0  0  0  0  0  0  0  0  0  0  0
   -3.7843   -2.0854    1.1051 H   0  0  0  0  0  0  0  0  0  0  0  0
   -6.1563    0.4087    0.4255 H   0  0  0  0  0  0  0  0  0  0  0  0
   -5.4637    2.0472   -1.4390 H   0  0  0  0  0  0  0  0  0  0  0  0
  1  2  1  0
  2  3  1  0
  3  4  2  0
  3  5  1  0
  5  6  1  0
  6  7  1  0
  7  8  1  0
  8  9  1  0
  9 10  1  0
 10 11  2  0
 11 12  1  0
 11 13  1  0
 13 14  1  0
 14 15  2  0
 15 10  1  0
  1 16  1  0
  1 17  1  0
  1 18  1  0
  2 19  1  0
  5 20  1  0
  6 21  1  0
  6 22  1  0
  7 23  1  0
  7 24  1  0
  9 25  1  0
  9 26  1  0
 12 27  1  0
 12 28  1  0
 12 29  1  0
 13 30  1  0
 14 31  1  0
M  END
$$$$
