
     RDKit          3D

 43 44  0  0  0  0  0  0  0  0999 V2000
    6.0018    0.4419    1.5560 C   0  0  0  0  0  0  0  0  0  0  0  0
    4.5052    0.5686    1.2279 C   0  0  0  0  0  0  0  0  0  0  0  0
    3.8455   -0.8181    1.3311 C   0  0  0  0  0  0  0  0  0  0  0  0
    4.2770    1.1989   -0.1792 C   0  0  2  0  0  0  0  0  0  0  0  0
    4.9216    2.5093   -0.3133 N   0  0  0  0  0  0  0  0  0  0  0  0
    2.8113    1.3545   -0.4732 C   0  0  0  0  0  0  0  0  0  0  0  0
    2.1253    2.1971    0.1690 O   0  0  0  0  0  0  0  0  0  0  0  0
    2.2159    0.5402   -1.4433 O   0  0  0  0  0  0  0  0  0  0  0  0
    0.8147    0.5332   -1.7068 C   0  0  0  0  0  0  0  0  0  0  0  0
    0.0665   -0.2226   -0.6067 C   0  0  0  0  0  0  0  0  0  0  0  0
   -1.3059   -0.3294   -0.9342 O   0  0  0  0  0  0  0  0  0  0  0  0
   -2.0470    0.6950   -0.3048 C   0  0  0  0  0  0  0  0  0  0  0  0
   -3.4290    0.6361   -0.7679 N   0  0  0  0  0  0  0  0  0  0  0  0
   -4.0239    1.4278   -1.6967 C   0  0  0  0  0  0  0  0  0  0  0  0
   -5.3099    1.0696   -1.9669 N   0  0  0  0  0  0  0  0  0  0  0  0
   -5.4941    0.0025   -1.1663 C   0  0  0  0  0  0  0  0  0  0  0  0
   -4.3733   -0.2617   -0.4569 C   0  0  0  0  0  0  0  0  0  0  0  0
   -4.2833   -1.3072    0.4039 N   0  0  0  0  0  0  0  0  0  0  0  0
   -5.3828   -2.1112    0.5587 C   0  0  0  0  0  0  0  0  0  0  0  0
   -5.3394   -3.2207    1.4554 N   0  0  0  0  0  0  0  0  0  0  0  0
   -6.5311   -1.8551   -0.1499 N   0  0  0  0  0  0  0  0  0  0  0  0
   -6.6115   -0.8060   -1.0199 C   0  0  0  0  0  0  0  0  0  0  0  0
   -7.6688   -0.5877   -1.6672 O   0  0  0  0  0  0  0  0  0  0  0  0
    6.4685    1.4442    1.6514 H   0  0  0  0  0  0  0  0  0  0  0  0
    6.5289   -0.1328    0.7644 H   0  0  0  0  0  0  0  0  0  0  0  0
    6.1428   -0.0775    2.5280 H   0  0  0  0  0  0  0  0  0  0  0  0
    4.0423    1.2237    1.9996 H   0  0  0  0  0  0  0  0  0  0  0  0
    4.2489   -1.5019    0.5537 H   0  0  0  0  0  0  0  0  0  0  0  0
    4.0344   -1.2628    2.3316 H   0  0  0  0  0  0  0  0  0  0  0  0
    2.7451   -0.7408    1.2063 H   0  0  0  0  0  0  0  0  0  0  0  0
    4.7078    0.5177   -0.9480 H   0  0  0  0  0  0  0  0  0  0  0  0
    5.9513    2.3774   -0.4384 H   0  0  0  0  0  0  0  0  0  0  0  0
    4.7690    3.0725    0.5553 H   0  0  0  0  0  0  0  0  0  0  0  0
    0.4375    1.5745   -1.7984 H   0  0  0  0  0  0  0  0  0  0  0  0
    0.6421    0.0201   -2.6765 H   0  0  0  0  0  0  0  0  0  0  0  0
    0.2521    0.2468    0.3883 H   0  0  0  0  0  0  0  0  0  0  0  0
    0.4833   -1.2504   -0.5476 H   0  0  0  0  0  0  0  0  0  0  0  0
   -1.6268    1.6991   -0.5423 H   0  0  0  0  0  0  0  0  0  0  0  0
   -2.0332    0.5606    0.8002 H   0  0  0  0  0  0  0  0  0  0  0  0
   -3.5265    2.2563   -2.1844 H   0  0  0  0  0  0  0  0  0  0  0  0
   -3.4023   -1.4947    0.9325 H   0  0  0  0  0  0  0  0  0  0  0  0
   -4.4748   -3.4311    2.0015 H   0  0  0  0  0  0  0  0  0  0  0  0
   -6.1752   -3.8350    1.5743 H   0  0  0  0  0  0  0  0  0  0  0  0
  1  2  1  0
  2  3  1  0
  2  4  1  0
  4  5  1  0
  4  6  1  0
  6  7  2  0
  6  8  1  0
  8  9  1  0
  9 10  1  0
 10 11  1  0
 11 12  1  0
 12 13  1  0
 13 14  1  0
 14 15  2  0
 15 16  1  0
 16 17  2  0
 17 18  1  0
 18 19  1  0
 19 20  1  0
 19 21  2  0
 21 22  1  0
 22 23  2  0
 17 13  1  0
 22 16  1  0
  1 24  1  0
  1 25  1  0
  1 26  1  0
  2 27  1  0
  3 28  1  0
  3 29  1  0
  3 30  1  0
  4 31  1  6
  5 32  1  0
  5 33  1  0
  9 34  1  0
  9 35  1  0
 10 36  1  0
 10 37  1  0
 12 38  1  0
 12 39  1  0
 14 40  1  0
 18 41  1  0
 20 42  1  0
 20 43  1  0
M  END
$$$$
