
     RDKit          3D

123127  0  0  0  0  0  0  0  0999 V2000
    1.4089    0.9521    1.5244 C   0  0  2  0  0  0  0  0  0  0  0  0
    0.8708   -0.0473    2.6425 C   0  0  1  0  0  0  0  0  0  0  0  0
    0.4671    0.6373    3.9625 C   0  0  0  0  0  0  0  0  0  0  0  0
    0.0002   -1.2637    2.1897 C   0  0  0  0  0  0  0  0  0  0  0  0
    0.5866   -2.3230    2.0161 O   0  0  0  0  0  0  0  0  0  0  0  0
   -1.5351   -1.2790    2.0614 C   0  0  2  0  0  0  0  0  0  0  0  0
   -2.1487   -1.2125    3.4752 C   0  0  0  0  0  0  0  0  0  0  0  0
   -2.1705   -2.5043    1.2994 C   0  0  0  0  0  0  0  0  0  0  0  0
   -2.1858   -2.6633   -0.2822 C   0  0  1  0  0  0  0  0  0  0  0  0
   -0.7701   -3.1498   -0.6662 C   0  0  0  0  0  0  0  0  0  0  0  0
   -3.1278   -3.7298   -0.4686 O   0  0  0  0  0  0  0  0  0  0  0  0
   -3.3319   -4.1680   -1.7960 C   0  0  0  0  0  0  0  0  0  0  0  0
   -2.6519   -1.3291   -1.0643 C   0  0  2  0  0  0  0  0  0  0  0  0
   -4.0781   -1.2538   -1.0680 O   0  0  0  0  0  0  0  0  0  0  0  0
   -4.6617   -0.6890    0.0950 C   0  0  2  0  0  0  0  0  0  0  0  0
   -5.5216   -1.6684    0.6415 O   0  0  0  0  0  0  0  0  0  0  0  0
   -6.0878   -1.2091    1.8480 C   0  0  2  0  0  0  0  0  0  0  0  0
   -6.8078   -2.3746    2.5243 C   0  0  0  0  0  0  0  0  0  0  0  0
   -7.0646   -0.0698    1.5525 C   0  0  0  0  0  0  0  0  0  0  0  0
   -6.3552    1.1182    0.8552 C   0  0  1  0  0  0  0  0  0  0  0  0
   -5.4548    0.5794   -0.3065 C   0  0  1  0  0  0  0  0  0  0  0  0
   -4.5147    1.5641   -0.6590 O   0  0  0  0  0  0  0  0  0  0  0  0
   -7.3720    2.1078    0.3697 N   0  0  0  0  0  0  0  0  0  0  0  0
   -6.7583    3.2576   -0.3251 C   0  0  0  0  0  0  0  0  0  0  0  0
   -8.2039    2.6230    1.4793 C   0  0  0  0  0  0  0  0  0  0  0  0
   -2.1687   -1.2030   -2.5789 C   0  0  1  0  0  0  0  0  0  0  0  0
   -3.2447   -0.6626   -3.5427 C   0  0  0  0  0  0  0  0  0  0  0  0
   -0.8101   -0.5084   -2.7969 C   0  0  0  0  0  0  0  0  0  0  0  0
    0.1584   -1.2485   -2.8672 O   0  0  0  0  0  0  0  0  0  0  0  0
   -0.5719    0.9617   -3.2007 C   0  0  1  0  0  0  0  0  0  0  0  0
   -1.6126    1.9928   -2.7576 C   0  0  0  0  0  0  0  0  0  0  0  0
    0.8832    1.4106   -2.9729 C   0  0  0  0  0  0  0  0  0  0  0  0
    1.6818    1.2046   -3.9256 O   0  0  0  0  0  0  0  0  0  0  0  0
    1.4525    1.9570   -1.7930 O   0  0  0  0  0  0  0  0  0  0  0  0
    0.8339    2.5088   -0.6163 C   0  0  2  0  0  0  0  0  0  0  0  0
    1.8120    3.5577   -0.0410 C   0  0  0  0  0  0  0  0  0  0  0  0
    1.1940    4.4698    1.0196 C   0  0  0  0  0  0  0  0  0  0  0  0
    0.3667    1.3841    0.4108 C   0  0  2  0  0  0  0  0  0  0  0  0
   -1.0037    1.8467    0.9791 C   0  0  0  0  0  0  0  0  0  0  0  0
    0.3302    0.1759   -0.3451 O   0  0  0  0  0  0  0  0  0  0  0  0
    1.6075   -0.3855   -0.2751 C   0  0  0  0  0  0  0  0  0  0  0  0
    2.0241   -1.3126   -1.0168 O   0  0  0  0  0  0  0  0  0  0  0  0
    2.3885    0.2093    0.7381 N   0  0  0  0  0  0  0  0  0  0  0  0
    3.7391   -0.1865    1.1498 C   0  0  0  0  0  0  0  0  0  0  0  0
    4.8122    0.6305    0.4151 C   0  0  0  0  0  0  0  0  0  0  0  0
    4.8625    0.4066   -1.1068 C   0  0  0  0  0  0  0  0  0  0  0  0
    5.3244   -1.0007   -1.5157 C   0  0  0  0  0  0  0  0  0  0  0  0
    6.6749   -1.2780   -1.0305 N   0  0  0  0  0  0  0  0  0  0  0  0
    7.0167   -2.0552    0.0145 C   0  0  0  0  0  0  0  0  0  0  0  0
    8.3485   -2.0747    0.2265 N   0  0  0  0  0  0  0  0  0  0  0  0
    8.8560   -1.2684   -0.7326 C   0  0  0  0  0  0  0  0  0  0  0  0
    7.8233   -0.7731   -1.5091 C   0  0  0  0  0  0  0  0  0  0  0  0
   10.3035   -0.9829   -0.8836 C   0  0  0  0  0  0  0  0  0  0  0  0
   10.7866   -0.1355   -1.8967 C   0  0  0  0  0  0  0  0  0  0  0  0
   12.1556    0.1126   -2.0108 C   0  0  0  0  0  0  0  0  0  0  0  0
   13.0375   -0.4870   -1.1121 C   0  0  0  0  0  0  0  0  0  0  0  0
   12.5622   -1.3042   -0.1367 N   0  0  0  0  0  0  0  0  0  0  0  0
   11.2339   -1.5629   -0.0030 C   0  0  0  0  0  0  0  0  0  0  0  0
    1.8957    1.8175    2.0143 H   0  0  0  0  0  0  0  0  0  0  0  0
    1.7968   -0.5510    2.9990 H   0  0  0  0  0  0  0  0  0  0  0  0
    1.3261    1.2262    4.3515 H   0  0  0  0  0  0  0  0  0  0  0  0
   -0.3765    1.3405    3.8838 H   0  0  0  0  0  0  0  0  0  0  0  0
    0.2260   -0.1290    4.7298 H   0  0  0  0  0  0  0  0  0  0  0  0
   -1.8672   -0.4009    1.5362 H   0  0  0  0  0  0  0  0  0  0  0  0
   -1.6732   -1.9606    4.1455 H   0  0  0  0  0  0  0  0  0  0  0  0
   -2.0412   -0.2021    3.9091 H   0  0  0  0  0  0  0  0  0  0  0  0
   -3.2392   -1.4071    3.4663 H   0  0  0  0  0  0  0  0  0  0  0  0
   -1.7533   -3.4318    1.7519 H   0  0  0  0  0  0  0  0  0  0  0  0
   -3.2388   -2.5521    1.5973 H   0  0  0  0  0  0  0  0  0  0  0  0
   -0.6336   -3.3664   -1.7388 H   0  0  0  0  0  0  0  0  0  0  0  0
   -0.5188   -4.0863   -0.1236 H   0  0  0  0  0  0  0  0  0  0  0  0
   -0.0383   -2.3893   -0.3888 H   0  0  0  0  0  0  0  0  0  0  0  0
   -3.9767   -5.0694   -1.7580 H   0  0  0  0  0  0  0  0  0  0  0  0
   -2.3991   -4.4868   -2.2984 H   0  0  0  0  0  0  0  0  0  0  0  0
   -3.8930   -3.4219   -2.3891 H   0  0  0  0  0  0  0  0  0  0  0  0
   -2.2222   -0.4423   -0.5775 H   0  0  0  0  0  0  0  0  0  0  0  0
   -3.9106   -0.3812    0.8488 H   0  0  0  0  0  0  0  0  0  0  0  0
   -5.3063   -0.8526    2.5567 H   0  0  0  0  0  0  0  0  0  0  0  0
   -7.2577   -2.0459    3.4855 H   0  0  0  0  0  0  0  0  0  0  0  0
   -6.0824   -3.1886    2.7365 H   0  0  0  0  0  0  0  0  0  0  0  0
   -7.6081   -2.7740    1.8650 H   0  0  0  0  0  0  0  0  0  0  0  0
   -7.4945    0.2604    2.5223 H   0  0  0  0  0  0  0  0  0  0  0  0
   -7.8872   -0.4422    0.9019 H   0  0  0  0  0  0  0  0  0  0  0  0
   -5.6896    1.6019    1.6084 H   0  0  0  0  0  0  0  0  0  0  0  0
   -6.1177    0.3215   -1.1683 H   0  0  0  0  0  0  0  0  0  0  0  0
   -4.5516    1.6767   -1.6424 H   0  0  0  0  0  0  0  0  0  0  0  0
   -6.4490    2.9610   -1.3464 H   0  0  0  0  0  0  0  0  0  0  0  0
   -7.4899    4.0792   -0.4860 H   0  0  0  0  0  0  0  0  0  0  0  0
   -5.8942    3.6632    0.2464 H   0  0  0  0  0  0  0  0  0  0  0  0
   -8.8571    3.4579    1.1445 H   0  0  0  0  0  0  0  0  0  0  0  0
   -8.9078    1.8421    1.8319 H   0  0  0  0  0  0  0  0  0  0  0  0
   -7.5741    2.9785    2.3248 H   0  0  0  0  0  0  0  0  0  0  0  0
   -2.0238   -2.2255   -2.9727 H   0  0  0  0  0  0  0  0  0  0  0  0
   -2.8091   -0.4300   -4.5380 H   0  0  0  0  0  0  0  0  0  0  0  0
   -3.7419    0.2332   -3.1386 H   0  0  0  0  0  0  0  0  0  0  0  0
   -4.0368   -1.4248   -3.7016 H   0  0  0  0  0  0  0  0  0  0  0  0
   -0.6849    0.9449   -4.3085 H   0  0  0  0  0  0  0  0  0  0  0  0
   -1.9700    1.7910   -1.7409 H   0  0  0  0  0  0  0  0  0  0  0  0
   -2.4820    1.9924   -3.4436 H   0  0  0  0  0  0  0  0  0  0  0  0
   -1.2033    3.0216   -2.8307 H   0  0  0  0  0  0  0  0  0  0  0  0
   -0.0369    3.0965   -0.9618 H   0  0  0  0  0  0  0  0  0  0  0  0
    2.7271    3.0756    0.3535 H   0  0  0  0  0  0  0  0  0  0  0  0
    2.1472    4.2103   -0.8771 H   0  0  0  0  0  0  0  0  0  0  0  0
    0.9086    3.9000    1.9264 H   0  0  0  0  0  0  0  0  0  0  0  0
    1.9360    5.2397    1.3187 H   0  0  0  0  0  0  0  0  0  0  0  0
    0.3002    4.9871    0.6109 H   0  0  0  0  0  0  0  0  0  0  0  0
   -1.8458    1.5163    0.3567 H   0  0  0  0  0  0  0  0  0  0  0  0
   -1.1997    1.5226    1.9994 H   0  0  0  0  0  0  0  0  0  0  0  0
   -1.0781    2.9501    1.0429 H   0  0  0  0  0  0  0  0  0  0  0  0
    3.8670    0.0108    2.2353 H   0  0  0  0  0  0  0  0  0  0  0  0
    3.8849   -1.2763    0.9996 H   0  0  0  0  0  0  0  0  0  0  0  0
    4.6283    1.7084    0.6066 H   0  0  0  0  0  0  0  0  0  0  0  0
    5.8050    0.4014    0.8574 H   0  0  0  0  0  0  0  0  0  0  0  0
    5.5657    1.1479   -1.5446 H   0  0  0  0  0  0  0  0  0  0  0  0
    3.8694    0.6140   -1.5548 H   0  0  0  0  0  0  0  0  0  0  0  0
    5.3170   -1.0699   -2.6250 H   0  0  0  0  0  0  0  0  0  0  0  0
    4.6194   -1.7710   -1.1410 H   0  0  0  0  0  0  0  0  0  0  0  0
    6.3058   -2.5976    0.6246 H   0  0  0  0  0  0  0  0  0  0  0  0
    7.8903   -0.0953   -2.3494 H   0  0  0  0  0  0  0  0  0  0  0  0
   10.1164    0.3367   -2.6012 H   0  0  0  0  0  0  0  0  0  0  0  0
   12.5298    0.7645   -2.7897 H   0  0  0  0  0  0  0  0  0  0  0  0
   14.1007   -0.3030   -1.1897 H   0  0  0  0  0  0  0  0  0  0  0  0
   10.9077   -2.2213    0.7914 H   0  0  0  0  0  0  0  0  0  0  0  0
  1  2  1  0
  2  3  1  0
  2  4  1  0
  4  5  2  0
  4  6  1  0
  6  7  1  0
  6  8  1  0
  8  9  1  0
  9 10  1  0
  9 11  1  1
 11 12  1  0
  9 13  1  0
 13 14  1  0
 14 15  1  0
 15 16  1  0
 16 17  1  0
 17 18  1  0
 17 19  1  0
 19 20  1  0
 20 21  1  0
 21 22  1  0
 20 23  1  0
 23 24  1  0
 23 25  1  0
 13 26  1  0
 26 27  1  0
 26 28  1  0
 28 29  2  0
 28 30  1  0
 30 31  1  0
 30 32  1  0
 32 33  2  0
 32 34  1  0
 34 35  1  0
 35 36  1  0
 36 37  1  0
 35 38  1  0
 38 39  1  1
 38 40  1  0
 40 41  1  0
 41 42  2  0
 41 43  1  0
 43 44  1  0
 44 45  1  0
 45 46  1  0
 46 47  1  0
 47 48  1  0
 48 49  1  0
 49 50  2  0
 50 51  1  0
 51 52  2  0
 51 53  1  0
 53 54  2  0
 54 55  1  0
 55 56  2  0
 56 57  1  0
 57 58  2  0
 38  1  1  0
 52 48  1  0
 58 53  1  0
 43  1  1  0
 21 15  1  0
  1 59  1  1
  2 60  1  1
  3 61  1  0
  3 62  1  0
  3 63  1  0
  6 64  1  6
  7 65  1  0
  7 66  1  0
  7 67  1  0
  8 68  1  0
  8 69  1  0
 10 70  1  0
 10 71  1  0
 10 72  1  0
 12 73  1  0
 12 74  1  0
 12 75  1  0
 13 76  1  1
 15 77  1  1
 17 78  1  1
 18 79  1  0
 18 80  1  0
 18 81  1  0
 19 82  1  0
 19 83  1  0
 20 84  1  1
 21 85  1  6
 22 86  1  0
 24 87  1  0
 24 88  1  0
 24 89  1  0
 25 90  1  0
 25 91  1  0
 25 92  1  0
 26 93  1  6
 27 94  1  0
 27 95  1  0
 27 96  1  0
 30 97  1  6
 31 98  1  0
 31 99  1  0
 31100  1  0
 35101  1  6
 36102  1  0
 36103  1  0
 37104  1  0
 37105  1  0
 37106  1  0
 39107  1  0
 39108  1  0
 39109  1  0
 44110  1  0
 44111  1  0
 45112  1  0
 45113  1  0
 46114  1  0
 46115  1  0
 47116  1  0
 47117  1  0
 49118  1  0
 52119  1  0
 54120  1  0
 55121  1  0
 56122  1  0
 58123  1  0
M  END
$$$$
