
     RDKit          3D

 58 59  0  0  0  0  0  0  0  0999 V2000
    1.7617   -2.7130    1.2380 C   0  0  1  0  0  0  0  0  0  0  0  0
    0.8117   -2.4464    2.4159 C   0  0  0  0  0  0  0  0  0  0  0  0
   -0.4596   -1.8281    1.8198 C   0  0  1  0  0  0  0  0  0  0  0  0
   -0.9336   -0.7511    2.5912 O   0  0  0  0  0  0  0  0  0  0  0  0
   -0.1015   -1.4043    0.3892 C   0  0  2  0  0  0  0  0  0  0  0  0
   -1.2976   -1.4241   -0.5347 C   0  0  0  0  0  0  0  0  0  0  0  0
   -2.2882   -0.5291   -0.4072 C   0  0  0  0  0  0  0  0  0  0  0  0
   -3.4711   -0.5423   -1.3476 C   0  0  1  0  0  0  0  0  0  0  0  0
   -4.1493   -1.7650   -1.2083 O   0  0  0  0  0  0  0  0  0  0  0  0
   -4.4517    0.6413   -1.1165 C   0  0  0  0  0  0  0  0  0  0  0  0
   -3.7792    1.9922   -1.4223 C   0  0  0  0  0  0  0  0  0  0  0  0
   -5.0745    0.6241    0.2996 C   0  0  0  0  0  0  0  0  0  0  0  0
   -6.2248    1.5334    0.3896 C   0  0  0  0  0  0  0  0  0  0  0  0
   -7.1679    2.2807    0.4620 C   0  0  0  0  0  0  0  0  0  0  0  0
   -8.3115    3.1886    0.5482 C   0  0  0  0  0  0  0  0  0  0  0  0
    0.9836   -2.4021   -0.0403 C   0  0  1  0  0  0  0  0  0  0  0  0
    1.9830   -1.8154   -1.0420 C   0  0  0  0  0  0  0  0  0  0  0  0
    3.1423   -1.3957   -0.2072 C   0  0  0  0  0  0  0  0  0  0  0  0
    3.0036   -1.8088    1.2210 C   0  0  0  0  0  0  0  0  0  0  0  0
    4.1800   -0.7022   -0.7080 C   0  0  0  0  0  0  0  0  0  0  0  0
    5.3455   -0.2647    0.1450 C   0  0  0  0  0  0  0  0  0  0  0  0
    6.3504    0.5976   -0.6365 C   0  0  0  0  0  0  0  0  0  0  0  0
    5.7985    1.9785   -1.0264 C   0  0  0  0  0  0  0  0  0  0  0  0
    5.5617    2.8419    0.1745 C   0  0  0  0  0  0  0  0  0  0  0  0
    6.6402    3.4254    0.8317 O   0  0  0  0  0  0  0  0  0  0  0  0
    4.3907    3.0194    0.6048 O   0  0  0  0  0  0  0  0  0  0  0  0
    2.0826   -3.7797    1.2307 H   0  0  0  0  0  0  0  0  0  0  0  0
    1.2721   -1.7842    3.1811 H   0  0  0  0  0  0  0  0  0  0  0  0
    0.5585   -3.4047    2.9204 H   0  0  0  0  0  0  0  0  0  0  0  0
   -1.2491   -2.6130    1.7880 H   0  0  0  0  0  0  0  0  0  0  0  0
   -0.2208   -0.0605    2.6227 H   0  0  0  0  0  0  0  0  0  0  0  0
    0.3301   -0.3764    0.4028 H   0  0  0  0  0  0  0  0  0  0  0  0
   -1.3447   -2.1585   -1.3352 H   0  0  0  0  0  0  0  0  0  0  0  0
   -2.2207    0.2205    0.3746 H   0  0  0  0  0  0  0  0  0  0  0  0
   -3.0706   -0.4654   -2.3864 H   0  0  0  0  0  0  0  0  0  0  0  0
   -4.7070   -1.8801   -2.0218 H   0  0  0  0  0  0  0  0  0  0  0  0
   -5.2771    0.5180   -1.8546 H   0  0  0  0  0  0  0  0  0  0  0  0
   -4.5305    2.8098   -1.4028 H   0  0  0  0  0  0  0  0  0  0  0  0
   -2.9883    2.2247   -0.6790 H   0  0  0  0  0  0  0  0  0  0  0  0
   -3.3245    1.9751   -2.4356 H   0  0  0  0  0  0  0  0  0  0  0  0
   -5.4329   -0.3968    0.5486 H   0  0  0  0  0  0  0  0  0  0  0  0
   -4.3287    0.9238    1.0651 H   0  0  0  0  0  0  0  0  0  0  0  0
   -8.4229    3.5452    1.5929 H   0  0  0  0  0  0  0  0  0  0  0  0
   -9.2330    2.6531    0.2401 H   0  0  0  0  0  0  0  0  0  0  0  0
   -8.1462    4.0562   -0.1231 H   0  0  0  0  0  0  0  0  0  0  0  0
    0.5273   -3.3379   -0.4378 H   0  0  0  0  0  0  0  0  0  0  0  0
    2.3117   -2.5963   -1.7613 H   0  0  0  0  0  0  0  0  0  0  0  0
    1.5560   -0.9544   -1.6019 H   0  0  0  0  0  0  0  0  0  0  0  0
    3.8969   -2.3763    1.5604 H   0  0  0  0  0  0  0  0  0  0  0  0
    2.8742   -0.8976    1.8443 H   0  0  0  0  0  0  0  0  0  0  0  0
    4.1734   -0.4511   -1.7657 H   0  0  0  0  0  0  0  0  0  0  0  0
    4.9779    0.2957    1.0309 H   0  0  0  0  0  0  0  0  0  0  0  0
    5.8732   -1.1709    0.5125 H   0  0  0  0  0  0  0  0  0  0  0  0
    7.2654    0.7325   -0.0188 H   0  0  0  0  0  0  0  0  0  0  0  0
    6.6582    0.0569   -1.5583 H   0  0  0  0  0  0  0  0  0  0  0  0
    4.8601    1.8733   -1.6119 H   0  0  0  0  0  0  0  0  0  0  0  0
    6.5390    2.4858   -1.6811 H   0  0  0  0  0  0  0  0  0  0  0  0
    6.4980    4.0025    1.6520 H   0  0  0  0  0  0  0  0  0  0  0  0
  1  2  1  0
  2  3  1  0
  3  4  1  0
  3  5  1  0
  5  6  1  0
  6  7  2  0
  7  8  1  0
  8  9  1  0
  8 10  1  0
 10 11  1  0
 10 12  1  0
 12 13  1  0
 13 14  3  0
 14 15  1  0
  5 16  1  0
 16 17  1  0
 17 18  1  0
 18 19  1  0
 18 20  2  0
 20 21  1  0
 21 22  1  0
 22 23  1  0
 23 24  1  0
 24 25  1  0
 24 26  2  0
 16  1  1  0
 19  1  1  0
  1 27  1  6
  2 28  1  0
  2 29  1  0
  3 30  1  6
  4 31  1  0
  5 32  1  1
  6 33  1  0
  7 34  1  0
  8 35  1  6
  9 36  1  0
 10 37  1  0
 11 38  1  0
 11 39  1  0
 11 40  1  0
 12 41  1  0
 12 42  1  0
 15 43  1  0
 15 44  1  0
 15 45  1  0
 16 46  1  6
 17 47  1  0
 17 48  1  0
 19 49  1  0
 19 50  1  0
 20 51  1  0
 21 52  1  0
 21 53  1  0
 22 54  1  0
 22 55  1  0
 23 56  1  0
 23 57  1  0
 25 58  1  0
M  END
$$$$
