
     RDKit          3D

 44 45  0  0  0  0  0  0  0  0999 V2000
   -1.3528    3.7721   -0.8126 C   0  0  0  0  0  0  0  0  0  0  0  0
   -0.5466    2.8961    0.1509 C   0  0  0  0  0  0  0  0  0  0  0  0
   -1.1722    1.5856    0.4040 N   0  0  0  0  0  0  0  0  0  0  0  0
   -1.2913    0.7121   -0.7826 C   0  0  1  0  0  0  0  0  0  0  0  0
    0.0970    0.3141   -1.3530 C   0  0  0  0  0  0  0  0  0  0  0  0
    0.9733   -0.2538   -0.3045 N   0  0  0  0  0  0  0  0  0  0  0  0
    2.3493   -0.4136   -0.8154 C   0  0  0  0  0  0  0  0  0  0  0  0
    3.3372   -0.6889    0.3271 C   0  0  0  0  0  0  0  0  0  0  0  0
    4.7862   -0.6617   -0.1713 C   0  0  0  0  0  0  0  0  0  0  0  0
    5.6692   -1.0196    0.8756 O   0  0  0  0  0  0  0  0  0  0  0  0
    6.1904    0.1346    1.4971 C   0  0  0  0  0  0  0  0  0  0  0  0
    0.3100   -1.7889    0.2261 S   0  0  0  0  0  6  0  0  0  0  0  0
    0.6970   -2.0434    1.6555 O   0  0  0  0  0  0  0  0  0  0  0  0
    0.7836   -2.9173   -0.6478 O   0  0  0  0  0  0  0  0  0  0  0  0
   -1.4245   -1.6546    0.1116 C   0  0  0  0  0  0  0  0  0  0  0  0
   -2.0530   -0.5318   -0.3941 C   0  0  0  0  0  0  0  0  0  0  0  0
   -3.4489   -0.6468   -0.3981 C   0  0  0  0  0  0  0  0  0  0  0  0
   -3.8843   -1.8781    0.0787 C   0  0  0  0  0  0  0  0  0  0  0  0
   -2.5596   -2.8193    0.5300 S   0  0  0  0  0  0  0  0  0  0  0  0
   -5.5612   -2.3638    0.2389 S   0  0  0  0  0  6  0  0  0  0  0  0
   -6.2686   -1.5764    1.6053 N   0  0  0  0  0  0  0  0  0  0  0  0
   -5.6384   -3.8529    0.4258 O   0  0  0  0  0  0  0  0  0  0  0  0
   -6.3122   -1.9888   -1.0073 O   0  0  0  0  0  0  0  0  0  0  0  0
   -2.4241    3.7909   -0.5208 H   0  0  0  0  0  0  0  0  0  0  0  0
   -0.9600    4.8103   -0.7826 H   0  0  0  0  0  0  0  0  0  0  0  0
   -1.2550    3.4033   -1.8545 H   0  0  0  0  0  0  0  0  0  0  0  0
   -0.4727    3.4337    1.1209 H   0  0  0  0  0  0  0  0  0  0  0  0
    0.4949    2.7789   -0.2120 H   0  0  0  0  0  0  0  0  0  0  0  0
   -2.1286    1.7585    0.7960 H   0  0  0  0  0  0  0  0  0  0  0  0
   -1.8710    1.2197   -1.5835 H   0  0  0  0  0  0  0  0  0  0  0  0
   -0.0352   -0.4155   -2.1853 H   0  0  0  0  0  0  0  0  0  0  0  0
    0.5619    1.2134   -1.8101 H   0  0  0  0  0  0  0  0  0  0  0  0
    2.6727    0.5299   -1.3101 H   0  0  0  0  0  0  0  0  0  0  0  0
    2.4036   -1.2214   -1.5786 H   0  0  0  0  0  0  0  0  0  0  0  0
    3.2021    0.0791    1.1187 H   0  0  0  0  0  0  0  0  0  0  0  0
    3.1375   -1.6882    0.7676 H   0  0  0  0  0  0  0  0  0  0  0  0
    5.0218    0.3270   -0.6342 H   0  0  0  0  0  0  0  0  0  0  0  0
    4.8961   -1.4185   -0.9773 H   0  0  0  0  0  0  0  0  0  0  0  0
    6.8040   -0.1781    2.3667 H   0  0  0  0  0  0  0  0  0  0  0  0
    5.3810    0.7967    1.8764 H   0  0  0  0  0  0  0  0  0  0  0  0
    6.8531    0.6928    0.7996 H   0  0  0  0  0  0  0  0  0  0  0  0
   -4.1164    0.1400   -0.7251 H   0  0  0  0  0  0  0  0  0  0  0  0
   -6.1635   -0.5482    1.4532 H   0  0  0  0  0  0  0  0  0  0  0  0
   -5.6817   -1.8193    2.4347 H   0  0  0  0  0  0  0  0  0  0  0  0
  1  2  1  0
  2  3  1  0
  3  4  1  0
  4  5  1  0
  5  6  1  0
  6  7  1  0
  7  8  1  0
  8  9  1  0
  9 10  1  0
 10 11  1  0
  6 12  1  0
 12 13  2  0
 12 14  2  0
 12 15  1  0
 15 16  2  0
 16 17  1  0
 17 18  2  0
 18 19  1  0
 18 20  1  0
 20 21  1  0
 20 22  2  0
 20 23  2  0
 16  4  1  0
 19 15  1  0
  1 24  1  0
  1 25  1  0
  1 26  1  0
  2 27  1  0
  2 28  1  0
  3 29  1  0
  4 30  1  6
  5 31  1  0
  5 32  1  0
  7 33  1  0
  7 34  1  0
  8 35  1  0
  8 36  1  0
  9 37  1  0
  9 38  1  0
 11 39  1  0
 11 40  1  0
 11 41  1  0
 17 42  1  0
 21 43  1  0
 21 44  1  0
M  END
$$$$
