
     RDKit          3D

 18 17  0  0  0  0  0  0  0  0999 V2000
    1.1185    0.6118    0.6447 C   0  0  0  0  0  0  0  0  0  0  0  0
    1.7482   -0.2957   -0.2083 O   0  0  0  0  0  0  0  0  0  0  0  0
    3.1633   -0.4021   -0.2639 C   0  0  0  0  0  0  0  0  0  0  0  0
   -0.2116    0.7073    0.6889 C   0  0  0  0  0  0  0  0  0  0  0  0
   -1.1132   -0.1340   -0.1796 C   0  0  2  0  0  0  0  0  0  0  0  0
   -1.1638    0.4158   -1.5352 N   0  0  0  0  0  0  0  0  0  0  0  0
   -2.4936   -0.1732    0.4114 C   0  0  0  0  0  0  0  0  0  0  0  0
   -2.9204   -1.3067    1.0965 O   0  0  0  0  0  0  0  0  0  0  0  0
   -3.2552    0.8275    0.3178 O   0  0  0  0  0  0  0  0  0  0  0  0
    1.7143    1.2511    1.2861 H   0  0  0  0  0  0  0  0  0  0  0  0
    3.6048    0.5680   -0.5760 H   0  0  0  0  0  0  0  0  0  0  0  0
    3.4419   -1.1800   -1.0040 H   0  0  0  0  0  0  0  0  0  0  0  0
    3.5616   -0.6913    0.7317 H   0  0  0  0  0  0  0  0  0  0  0  0
   -0.6499    1.4300    1.3683 H   0  0  0  0  0  0  0  0  0  0  0  0
   -0.7250   -1.1777   -0.2165 H   0  0  0  0  0  0  0  0  0  0  0  0
   -0.2074    0.3586   -1.9549 H   0  0  0  0  0  0  0  0  0  0  0  0
   -1.7692   -0.2065   -2.1194 H   0  0  0  0  0  0  0  0  0  0  0  0
   -3.8433   -1.3457    1.5123 H   0  0  0  0  0  0  0  0  0  0  0  0
  1  2  1  0
  2  3  1  0
  1  4  2  0
  4  5  1  0
  5  6  1  0
  5  7  1  0
  7  8  1  0
  7  9  2  0
  1 10  1  0
  3 11  1  0
  3 12  1  0
  3 13  1  0
  4 14  1  0
  5 15  1  6
  6 16  1  0
  6 17  1  0
  8 18  1  0
M  END
$$$$
