
     RDKit          3D

 48 49  0  0  0  0  0  0  0  0999 V2000
    4.6434   -1.1519    1.0677 C   0  0  1  0  0  0  0  0  0  0  0  0
    5.2415   -1.5414   -0.2890 C   0  0  0  0  0  0  0  0  0  0  0  0
    5.5789   -0.2590    1.9262 C   0  0  0  0  0  0  0  0  0  0  0  0
    6.0115    1.0364    1.3446 N   0  0  0  0  0  0  0  0  0  0  0  0
    7.1442    0.9476    0.4099 C   0  0  0  0  0  0  0  0  0  0  0  0
    4.9277    1.8830    0.8286 C   0  0  0  0  0  0  0  0  0  0  0  0
    3.3710   -0.5203    0.9015 O   0  0  0  0  0  0  0  0  0  0  0  0
    2.1806   -1.1487    0.5031 C   0  0  0  0  0  0  0  0  0  0  0  0
    2.0532   -2.5432    0.3776 C   0  0  0  0  0  0  0  0  0  0  0  0
    0.8689   -3.0724   -0.0244 N   0  0  0  0  0  0  0  0  0  0  0  0
   -0.2048   -2.2864   -0.2937 C   0  0  0  0  0  0  0  0  0  0  0  0
   -0.0971   -0.8958   -0.1429 C   0  0  0  0  0  0  0  0  0  0  0  0
   -1.1890   -0.0111   -0.4389 N   0  0  0  0  0  0  0  0  0  0  0  0
   -2.5745   -0.3431   -0.2606 C   0  0  0  0  0  0  0  0  0  0  0  0
   -2.9035   -1.3523    0.4207 O   0  0  0  0  0  0  0  0  0  0  0  0
   -3.5840    0.5273   -0.7943 N   0  0  0  0  0  0  0  0  0  0  0  0
   -4.9850    0.2005   -0.8326 C   0  0  0  0  0  0  0  0  0  0  0  0
   -5.9447    1.2139   -0.6369 C   0  0  0  0  0  0  0  0  0  0  0  0
   -5.5033    2.5202   -0.3700 O   0  0  0  0  0  0  0  0  0  0  0  0
   -6.3625    3.6343   -0.1506 C   0  0  0  0  0  0  0  0  0  0  0  0
   -7.3150    0.8914   -0.7031 C   0  0  0  0  0  0  0  0  0  0  0  0
   -7.7213   -0.4176   -0.9692 C   0  0  0  0  0  0  0  0  0  0  0  0
   -6.7706   -1.4173   -1.1807 C   0  0  0  0  0  0  0  0  0  0  0  0
   -7.2857   -3.0560   -1.5370 Cl  0  0  0  0  0  0  0  0  0  0  0  0
   -5.4090   -1.1101   -1.1195 C   0  0  0  0  0  0  0  0  0  0  0  0
    1.0986   -0.3703    0.2362 N   0  0  0  0  0  0  0  0  0  0  0  0
    4.5067   -2.0825    1.6604 H   0  0  0  0  0  0  0  0  0  0  0  0
    5.1205   -0.7190   -1.0221 H   0  0  0  0  0  0  0  0  0  0  0  0
    6.3150   -1.8055   -0.1841 H   0  0  0  0  0  0  0  0  0  0  0  0
    4.7158   -2.4277   -0.6989 H   0  0  0  0  0  0  0  0  0  0  0  0
    5.0527   -0.0445    2.8817 H   0  0  0  0  0  0  0  0  0  0  0  0
    6.4710   -0.8552    2.2198 H   0  0  0  0  0  0  0  0  0  0  0  0
    7.8853    0.1914    0.7460 H   0  0  0  0  0  0  0  0  0  0  0  0
    6.8142    0.7072   -0.6204 H   0  0  0  0  0  0  0  0  0  0  0  0
    7.6669    1.9268    0.3781 H   0  0  0  0  0  0  0  0  0  0  0  0
    4.0988    1.9418    1.5661 H   0  0  0  0  0  0  0  0  0  0  0  0
    5.3045    2.9161    0.6717 H   0  0  0  0  0  0  0  0  0  0  0  0
    4.5425    1.5007   -0.1405 H   0  0  0  0  0  0  0  0  0  0  0  0
    2.8731   -3.2117    0.5914 H   0  0  0  0  0  0  0  0  0  0  0  0
   -1.1182   -2.7454   -0.6452 H   0  0  0  0  0  0  0  0  0  0  0  0
   -0.9547    0.9661   -0.7248 H   0  0  0  0  0  0  0  0  0  0  0  0
   -3.2863    1.4764   -1.1141 H   0  0  0  0  0  0  0  0  0  0  0  0
   -5.7450    4.5372    0.0331 H   0  0  0  0  0  0  0  0  0  0  0  0
   -6.9939    3.8119   -1.0467 H   0  0  0  0  0  0  0  0  0  0  0  0
   -7.0018    3.4540    0.7392 H   0  0  0  0  0  0  0  0  0  0  0  0
   -8.0746    1.6456   -0.5502 H   0  0  0  0  0  0  0  0  0  0  0  0
   -8.7772   -0.6522   -1.0179 H   0  0  0  0  0  0  0  0  0  0  0  0
   -4.6850   -1.8891   -1.3202 H   0  0  0  0  0  0  0  0  0  0  0  0
  1  2  1  0
  1  3  1  0
  3  4  1  0
  4  5  1  0
  4  6  1  0
  1  7  1  0
  7  8  1  0
  8  9  2  0
  9 10  1  0
 10 11  2  0
 11 12  1  0
 12 13  1  0
 13 14  1  0
 14 15  2  0
 14 16  1  0
 16 17  1  0
 17 18  2  0
 18 19  1  0
 19 20  1  0
 18 21  1  0
 21 22  2  0
 22 23  1  0
 23 24  1  0
 23 25  2  0
 12 26  2  0
 26  8  1  0
 25 17  1  0
  1 27  1  1
  2 28  1  0
  2 29  1  0
  2 30  1  0
  3 31  1  0
  3 32  1  0
  5 33  1  0
  5 34  1  0
  5 35  1  0
  6 36  1  0
  6 37  1  0
  6 38  1  0
  9 39  1  0
 11 40  1  0
 13 41  1  0
 16 42  1  0
 20 43  1  0
 20 44  1  0
 20 45  1  0
 21 46  1  0
 22 47  1  0
 25 48  1  0
M  END
$$$$
