
     RDKit          3D

 25 24  0  0  0  0  0  0  0  0999 V2000
    3.1314   -0.9811    0.3119 N   0  0  0  0  0  0  0  0  0  0  0  0
    2.2169   -0.1554   -0.4820 C   0  0  1  0  0  0  0  0  0  0  0  0
    0.9096    0.1148    0.2896 C   0  0  0  0  0  0  0  0  0  0  0  0
    0.0543   -1.1522    0.4640 C   0  0  0  0  0  0  0  0  0  0  0  0
   -1.3086   -0.8392    1.0969 C   0  0  0  0  0  0  0  0  0  0  0  0
   -2.1917   -0.1370    0.1614 N   0  0  0  0  0  0  0  0  0  0  0  0
   -3.5108    0.3065    0.5183 C   0  0  0  0  0  0  0  0  0  0  0  0
   -4.1202    0.0482    2.0211 S   0  0  0  0  0  0  0  0  0  0  0  0
   -4.3124    0.9840   -0.4502 N   0  0  0  0  0  0  0  0  0  0  0  0
    2.8764    1.1533   -0.8206 C   0  0  0  0  0  0  0  0  0  0  0  0
    2.8619    1.6162   -2.1327 O   0  0  0  0  0  0  0  0  0  0  0  0
    3.4190    1.8448    0.0833 O   0  0  0  0  0  0  0  0  0  0  0  0
    2.7533   -1.9548    0.3488 H   0  0  0  0  0  0  0  0  0  0  0  0
    4.0392   -1.0602   -0.2030 H   0  0  0  0  0  0  0  0  0  0  0  0
    1.9783   -0.6812   -1.4348 H   0  0  0  0  0  0  0  0  0  0  0  0
    1.1478    0.5394    1.2902 H   0  0  0  0  0  0  0  0  0  0  0  0
    0.3189    0.8743   -0.2684 H   0  0  0  0  0  0  0  0  0  0  0  0
    0.5845   -1.8629    1.1330 H   0  0  0  0  0  0  0  0  0  0  0  0
   -0.0994   -1.6533   -0.5168 H   0  0  0  0  0  0  0  0  0  0  0  0
   -1.1619   -0.2233    2.0110 H   0  0  0  0  0  0  0  0  0  0  0  0
   -1.7894   -1.7958    1.3954 H   0  0  0  0  0  0  0  0  0  0  0  0
   -1.8686    0.0410   -0.8167 H   0  0  0  0  0  0  0  0  0  0  0  0
   -3.9459    1.1597   -1.4117 H   0  0  0  0  0  0  0  0  0  0  0  0
   -5.2743    1.3138   -0.2118 H   0  0  0  0  0  0  0  0  0  0  0  0
    3.2919    2.5004   -2.3764 H   0  0  0  0  0  0  0  0  0  0  0  0
  1  2  1  0
  2  3  1  0
  3  4  1  0
  4  5  1  0
  5  6  1  0
  6  7  1  0
  7  8  2  0
  7  9  1  0
  2 10  1  0
 10 11  1  0
 10 12  2  0
  1 13  1  0
  1 14  1  0
  2 15  1  6
  3 16  1  0
  3 17  1  0
  4 18  1  0
  4 19  1  0
  5 20  1  0
  5 21  1  0
  6 22  1  0
  9 23  1  0
  9 24  1  0
 11 25  1  0
M  END
$$$$
