
     RDKit          3D

 57 60  0  0  0  0  0  0  0  0999 V2000
    0.5922   -0.3155   -1.0774 C   0  0  2  0  0  0  0  0  0  0  0  0
    1.4095   -1.2106   -2.0047 C   0  0  0  0  0  0  0  0  0  0  0  0
    2.8648   -0.6921   -1.8876 C   0  0  1  0  0  0  0  0  0  0  0  0
    3.4500   -0.2607   -3.2414 C   0  0  0  0  0  0  0  0  0  0  0  0
    2.8632    0.4393   -0.7892 C   0  0  2  0  0  0  0  0  0  0  0  0
    2.7924    1.7254   -1.3784 O   0  0  0  0  0  0  0  0  0  0  0  0
    4.1344    0.4339    0.0672 C   0  0  0  0  0  0  0  0  0  0  0  0
    4.8997   -0.5195    0.0447 O   0  0  0  0  0  0  0  0  0  0  0  0
    4.4691    1.5925    0.9728 C   0  0  0  0  0  0  0  0  0  0  0  0
    4.4603    1.1805    2.3124 O   0  0  0  0  0  0  0  0  0  0  0  0
    1.5660    0.1093    0.0357 C   0  0  2  0  0  0  0  0  0  0  0  0
    1.8712   -1.0549    1.0419 C   0  0  0  0  0  0  0  0  0  0  0  0
    0.9239    1.3051    0.7863 C   0  0  0  0  0  0  0  0  0  0  0  0
   -0.4954    0.9812    1.3375 C   0  0  2  0  0  0  0  0  0  0  0  0
   -0.3983    0.1750    2.4809 O   0  0  0  0  0  0  0  0  0  0  0  0
   -1.4481    0.3380    0.2636 C   0  0  1  0  0  0  0  0  0  0  0  0
   -0.7681   -0.8247   -0.5470 C   0  0  1  0  0  0  0  0  0  0  0  0
   -1.6683   -1.2592   -1.7242 C   0  0  0  0  0  0  0  0  0  0  0  0
   -3.0527   -1.6916   -1.2453 C   0  0  2  0  0  0  0  0  0  0  0  0
   -3.8140   -2.0440   -2.3492 F   0  0  0  0  0  0  0  0  0  0  0  0
   -3.6844   -0.5733   -0.4425 C   0  0  0  0  0  0  0  0  0  0  0  0
   -4.8988   -0.0990   -0.7756 C   0  0  0  0  0  0  0  0  0  0  0  0
   -5.4985    1.0171   -0.0461 C   0  0  0  0  0  0  0  0  0  0  0  0
   -6.6443    1.4356   -0.3582 O   0  0  0  0  0  0  0  0  0  0  0  0
   -4.7542    1.6546    1.0347 C   0  0  0  0  0  0  0  0  0  0  0  0
   -3.5549    1.1970    1.3924 C   0  0  0  0  0  0  0  0  0  0  0  0
   -2.8984   -0.0365    0.7690 C   0  0  2  0  0  0  0  0  0  0  0  0
   -2.9062   -1.1384    1.8571 C   0  0  0  0  0  0  0  0  0  0  0  0
    0.3315    0.5762   -1.6908 H   0  0  0  0  0  0  0  0  0  0  0  0
    1.0215   -1.1542   -3.0459 H   0  0  0  0  0  0  0  0  0  0  0  0
    1.3474   -2.2678   -1.6640 H   0  0  0  0  0  0  0  0  0  0  0  0
    3.4742   -1.5586   -1.5501 H   0  0  0  0  0  0  0  0  0  0  0  0
    2.7947    0.4735   -3.7547 H   0  0  0  0  0  0  0  0  0  0  0  0
    4.4560    0.1862   -3.0946 H   0  0  0  0  0  0  0  0  0  0  0  0
    3.5548   -1.1473   -3.9023 H   0  0  0  0  0  0  0  0  0  0  0  0
    2.0529    1.7653   -2.0330 H   0  0  0  0  0  0  0  0  0  0  0  0
    5.4662    2.0043    0.6969 H   0  0  0  0  0  0  0  0  0  0  0  0
    3.7329    2.4134    0.8548 H   0  0  0  0  0  0  0  0  0  0  0  0
    5.3165    0.7035    2.4710 H   0  0  0  0  0  0  0  0  0  0  0  0
    0.9747   -1.5012    1.5023 H   0  0  0  0  0  0  0  0  0  0  0  0
    2.4155   -1.8893    0.5549 H   0  0  0  0  0  0  0  0  0  0  0  0
    2.4987   -0.6861    1.8796 H   0  0  0  0  0  0  0  0  0  0  0  0
    0.8293    2.1769    0.1033 H   0  0  0  0  0  0  0  0  0  0  0  0
    1.5798    1.6263    1.6231 H   0  0  0  0  0  0  0  0  0  0  0  0
   -0.9335    1.9621    1.6318 H   0  0  0  0  0  0  0  0  0  0  0  0
   -0.0672    0.7517    3.2184 H   0  0  0  0  0  0  0  0  0  0  0  0
   -1.6116    1.1579   -0.4760 H   0  0  0  0  0  0  0  0  0  0  0  0
   -0.6168   -1.7168    0.0884 H   0  0  0  0  0  0  0  0  0  0  0  0
   -1.2020   -2.1162   -2.2566 H   0  0  0  0  0  0  0  0  0  0  0  0
   -1.7780   -0.4240   -2.4518 H   0  0  0  0  0  0  0  0  0  0  0  0
   -2.9571   -2.5937   -0.6046 H   0  0  0  0  0  0  0  0  0  0  0  0
   -5.4525   -0.5122   -1.6090 H   0  0  0  0  0  0  0  0  0  0  0  0
   -5.1836    2.5021    1.5548 H   0  0  0  0  0  0  0  0  0  0  0  0
   -3.0750    1.6767    2.2356 H   0  0  0  0  0  0  0  0  0  0  0  0
   -2.2537   -1.9940    1.5958 H   0  0  0  0  0  0  0  0  0  0  0  0
   -2.5897   -0.7491    2.8465 H   0  0  0  0  0  0  0  0  0  0  0  0
   -3.9379   -1.5302    1.9940 H   0  0  0  0  0  0  0  0  0  0  0  0
  1  2  1  0
  2  3  1  0
  3  4  1  0
  3  5  1  0
  5  6  1  6
  5  7  1  0
  7  8  2  0
  7  9  1  0
  9 10  1  0
  5 11  1  0
 11 12  1  1
 11 13  1  0
 13 14  1  0
 14 15  1  0
 14 16  1  0
 16 17  1  0
 17 18  1  0
 18 19  1  0
 19 20  1  0
 19 21  1  0
 21 22  2  0
 22 23  1  0
 23 24  2  0
 23 25  1  0
 25 26  2  0
 26 27  1  0
 27 28  1  1
 11  1  1  0
 27 16  1  0
 17  1  1  0
 27 21  1  0
  1 29  1  6
  2 30  1  0
  2 31  1  0
  3 32  1  1
  4 33  1  0
  4 34  1  0
  4 35  1  0
  6 36  1  0
  9 37  1  0
  9 38  1  0
 10 39  1  0
 12 40  1  0
 12 41  1  0
 12 42  1  0
 13 43  1  0
 13 44  1  0
 14 45  1  1
 15 46  1  0
 16 47  1  6
 17 48  1  1
 18 49  1  0
 18 50  1  0
 19 51  1  1
 22 52  1  0
 25 53  1  0
 26 54  1  0
 28 55  1  0
 28 56  1  0
 28 57  1  0
M  END
$$$$
