
     RDKit          3D

 57 60  0  0  0  0  0  0  0  0999 V2000
   -3.7751   -0.4361    0.5829 C   0  0  1  0  0  0  0  0  0  0  0  0
   -3.9209   -1.6166   -0.4103 C   0  0  0  0  0  0  0  0  0  0  0  0
   -2.5080   -1.9041   -0.9542 C   0  0  0  0  0  0  0  0  0  0  0  0
   -1.5960   -1.0287   -0.1024 C   0  0  1  0  0  0  0  0  0  0  0  0
   -0.1751   -0.6966   -0.6062 C   0  0  2  0  0  0  0  0  0  0  0  0
    0.6055   -1.9821   -0.9356 C   0  0  0  0  0  0  0  0  0  0  0  0
    2.0445   -1.6642   -1.3475 C   0  0  0  0  0  0  0  0  0  0  0  0
    2.7726   -0.8839   -0.2370 C   0  0  1  0  0  0  0  0  0  0  0  0
    4.2680   -0.6880   -0.5896 C   0  0  0  0  0  0  0  0  0  0  0  0
    4.9859    0.3503    0.3090 C   0  0  2  0  0  0  0  0  0  0  0  0
    6.2872   -0.0862    0.6037 O   0  0  0  0  0  0  0  0  0  0  0  0
    4.2316    0.5862    1.6208 C   0  0  0  0  0  0  0  0  0  0  0  0
    2.7860    1.0787    1.3914 C   0  0  0  0  0  0  0  0  0  0  0  0
    2.0534    0.4559    0.1442 C   0  0  1  0  0  0  0  0  0  0  0  0
    2.1082    1.4740   -1.0368 C   0  0  0  0  0  0  0  0  0  0  0  0
    0.5570    0.1182    0.5164 C   0  0  1  0  0  0  0  0  0  0  0  0
   -0.2804    1.3560    0.9772 C   0  0  0  0  0  0  0  0  0  0  0  0
   -1.7384    0.9917    1.3485 C   0  0  0  0  0  0  0  0  0  0  0  0
   -2.4309    0.2250    0.1986 C   0  0  2  0  0  0  0  0  0  0  0  0
   -2.6196    1.1647   -1.0379 C   0  0  0  0  0  0  0  0  0  0  0  0
   -4.9710    0.4999    0.6149 C   0  0  0  0  0  0  0  0  0  0  0  0
   -5.4320    1.1098    1.9053 C   0  0  0  0  0  0  0  0  0  0  0  0
   -5.5653    0.7829   -0.4151 O   0  0  0  0  0  0  0  0  0  0  0  0
   -3.6686   -0.8839    1.5983 H   0  0  0  0  0  0  0  0  0  0  0  0
   -4.5956   -1.3712   -1.2588 H   0  0  0  0  0  0  0  0  0  0  0  0
   -4.3272   -2.5096    0.1133 H   0  0  0  0  0  0  0  0  0  0  0  0
   -2.2492   -2.9798   -0.8440 H   0  0  0  0  0  0  0  0  0  0  0  0
   -2.4338   -1.6189   -2.0263 H   0  0  0  0  0  0  0  0  0  0  0  0
   -1.4588   -1.5965    0.8520 H   0  0  0  0  0  0  0  0  0  0  0  0
   -0.2475   -0.1111   -1.5421 H   0  0  0  0  0  0  0  0  0  0  0  0
    0.6150   -2.6627   -0.0552 H   0  0  0  0  0  0  0  0  0  0  0  0
    0.1111   -2.5173   -1.7748 H   0  0  0  0  0  0  0  0  0  0  0  0
    2.5757   -2.6236   -1.5320 H   0  0  0  0  0  0  0  0  0  0  0  0
    2.0494   -1.0958   -2.3018 H   0  0  0  0  0  0  0  0  0  0  0  0
    2.7492   -1.5402    0.6644 H   0  0  0  0  0  0  0  0  0  0  0  0
    4.7742   -1.6748   -0.4974 H   0  0  0  0  0  0  0  0  0  0  0  0
    4.3760   -0.3744   -1.6510 H   0  0  0  0  0  0  0  0  0  0  0  0
    5.0496    1.3277   -0.2214 H   0  0  0  0  0  0  0  0  0  0  0  0
    6.8145    0.0027   -0.2332 H   0  0  0  0  0  0  0  0  0  0  0  0
    4.2119   -0.3614    2.2040 H   0  0  0  0  0  0  0  0  0  0  0  0
    4.7784    1.3360    2.2334 H   0  0  0  0  0  0  0  0  0  0  0  0
    2.2354    0.8441    2.3280 H   0  0  0  0  0  0  0  0  0  0  0  0
    2.7962    2.1889    1.3231 H   0  0  0  0  0  0  0  0  0  0  0  0
    1.6934    2.4585   -0.7411 H   0  0  0  0  0  0  0  0  0  0  0  0
    3.1443    1.6682   -1.3695 H   0  0  0  0  0  0  0  0  0  0  0  0
    1.5477    1.1254   -1.9241 H   0  0  0  0  0  0  0  0  0  0  0  0
    0.6031   -0.5528    1.4061 H   0  0  0  0  0  0  0  0  0  0  0  0
    0.1858    1.8191    1.8712 H   0  0  0  0  0  0  0  0  0  0  0  0
   -0.2955    2.1374    0.1943 H   0  0  0  0  0  0  0  0  0  0  0  0
   -1.7269    0.3723    2.2726 H   0  0  0  0  0  0  0  0  0  0  0  0
   -2.3043    1.9196    1.5822 H   0  0  0  0  0  0  0  0  0  0  0  0
   -3.2032    2.0641   -0.7485 H   0  0  0  0  0  0  0  0  0  0  0  0
   -1.6666    1.5366   -1.4562 H   0  0  0  0  0  0  0  0  0  0  0  0
   -3.1635    0.6581   -1.8616 H   0  0  0  0  0  0  0  0  0  0  0  0
   -5.4056    2.2165    1.8215 H   0  0  0  0  0  0  0  0  0  0  0  0
   -6.4717    0.7853    2.1193 H   0  0  0  0  0  0  0  0  0  0  0  0
   -4.7803    0.8066    2.7513 H   0  0  0  0  0  0  0  0  0  0  0  0
  1  2  1  0
  2  3  1  0
  3  4  1  0
  4  5  1  0
  5  6  1  0
  6  7  1  0
  7  8  1  0
  8  9  1  0
  9 10  1  0
 10 11  1  0
 10 12  1  0
 12 13  1  0
 13 14  1  0
 14 15  1  6
 14 16  1  0
 16 17  1  0
 17 18  1  0
 18 19  1  0
 19 20  1  6
  1 21  1  0
 21 22  1  0
 21 23  2  0
 19  1  1  0
 19  4  1  0
 16  5  1  0
 14  8  1  0
  1 24  1  1
  2 25  1  0
  2 26  1  0
  3 27  1  0
  3 28  1  0
  4 29  1  1
  5 30  1  6
  6 31  1  0
  6 32  1  0
  7 33  1  0
  7 34  1  0
  8 35  1  1
  9 36  1  0
  9 37  1  0
 10 38  1  6
 11 39  1  0
 12 40  1  0
 12 41  1  0
 13 42  1  0
 13 43  1  0
 15 44  1  0
 15 45  1  0
 15 46  1  0
 16 47  1  1
 17 48  1  0
 17 49  1  0
 18 50  1  0
 18 51  1  0
 20 52  1  0
 20 53  1  0
 20 54  1  0
 22 55  1  0
 22 56  1  0
 22 57  1  0
M  END
$$$$
