
     RDKit          3D

 55 56  0  0  0  0  0  0  0  0999 V2000
   -3.0787    0.5387    0.1715 C   0  0  1  0  0  0  0  0  0  0  0  0
   -1.8214    0.5285   -0.5908 N   0  0  0  0  0  0  0  0  0  0  0  0
   -1.0482   -0.6459   -0.8980 C   0  0  0  0  0  0  0  0  0  0  0  0
   -1.3984   -1.7788   -0.4729 O   0  0  0  0  0  0  0  0  0  0  0  0
    0.1909   -0.5360   -1.7365 C   0  0  0  0  0  0  0  0  0  0  0  0
    1.3887   -0.8710   -0.9355 N   0  0  0  0  0  0  0  0  0  0  0  0
    1.9188   -2.1395   -0.9975 C   0  0  0  0  0  0  0  0  0  0  0  0
    1.4126   -3.0039   -1.7663 O   0  0  0  0  0  0  0  0  0  0  0  0
    3.0268   -2.4953   -0.2077 C   0  0  0  0  0  0  0  0  0  0  0  0
    3.5785   -3.8258   -0.2813 N   0  0  0  0  0  0  0  0  0  0  0  0
    5.1403   -4.2704    0.3333 S   0  0  0  0  0  6  0  0  0  0  0  0
    6.4074   -3.2764   -0.4263 C   0  0  0  0  0  0  0  0  0  0  0  0
    5.4016   -5.7114   -0.0031 O   0  0  0  0  0  0  0  0  0  0  0  0
    5.1715   -4.1098    1.8272 O   0  0  0  0  0  0  0  0  0  0  0  0
    3.5438   -1.5322    0.6621 C   0  0  0  0  0  0  0  0  0  0  0  0
    2.9886   -0.3007    0.7166 N   0  0  0  0  0  0  0  0  0  0  0  0
    1.9359    0.0466   -0.0655 C   0  0  0  0  0  0  0  0  0  0  0  0
    1.3912    1.4082    0.0948 C   0  0  0  0  0  0  0  0  0  0  0  0
    1.5861    2.3778   -0.8998 C   0  0  0  0  0  0  0  0  0  0  0  0
    1.0719    3.6673   -0.7344 C   0  0  0  0  0  0  0  0  0  0  0  0
    0.3758    4.0049    0.4350 C   0  0  0  0  0  0  0  0  0  0  0  0
   -0.1531    5.3227    0.6031 N   0  0  0  0  0  0  0  0  0  0  0  0
    0.2072    3.0436    1.4414 C   0  0  0  0  0  0  0  0  0  0  0  0
    0.7170    1.7529    1.2742 C   0  0  0  0  0  0  0  0  0  0  0  0
   -4.1745   -0.3463   -0.4906 C   0  0  0  0  0  0  0  0  0  0  0  0
   -4.3648    0.0203   -1.9714 C   0  0  0  0  0  0  0  0  0  0  0  0
   -5.5178   -0.2067    0.2450 C   0  0  0  0  0  0  0  0  0  0  0  0
   -2.8163    0.1567    1.6195 C   0  0  0  0  0  0  0  0  0  0  0  0
   -2.5623   -1.0056    1.8985 O   0  0  0  0  0  0  0  0  0  0  0  0
   -2.8857    1.1608    2.7420 C   0  0  0  0  0  0  0  0  0  0  0  0
   -1.7467    1.0616    3.5193 F   0  0  0  0  0  0  0  0  0  0  0  0
   -2.9848    2.4568    2.2688 F   0  0  0  0  0  0  0  0  0  0  0  0
   -3.9892    0.8864    3.5279 F   0  0  0  0  0  0  0  0  0  0  0  0
   -3.4657    1.5805    0.1452 H   0  0  0  0  0  0  0  0  0  0  0  0
   -1.4796    1.4476   -0.9525 H   0  0  0  0  0  0  0  0  0  0  0  0
    0.0852   -1.2066   -2.6158 H   0  0  0  0  0  0  0  0  0  0  0  0
    0.2792    0.4771   -2.1758 H   0  0  0  0  0  0  0  0  0  0  0  0
    3.0628   -4.5669   -0.8060 H   0  0  0  0  0  0  0  0  0  0  0  0
    6.3425   -3.3758   -1.5293 H   0  0  0  0  0  0  0  0  0  0  0  0
    6.2767   -2.2116   -0.1471 H   0  0  0  0  0  0  0  0  0  0  0  0
    7.4044   -3.6228   -0.0843 H   0  0  0  0  0  0  0  0  0  0  0  0
    4.3739   -1.7499    1.3154 H   0  0  0  0  0  0  0  0  0  0  0  0
    2.1305    2.1329   -1.8037 H   0  0  0  0  0  0  0  0  0  0  0  0
    1.2181    4.4032   -1.5150 H   0  0  0  0  0  0  0  0  0  0  0  0
   -0.0308    6.0465   -0.1398 H   0  0  0  0  0  0  0  0  0  0  0  0
   -0.6734    5.5831    1.4704 H   0  0  0  0  0  0  0  0  0  0  0  0
   -0.3175    3.2953    2.3541 H   0  0  0  0  0  0  0  0  0  0  0  0
    0.5776    1.0185    2.0578 H   0  0  0  0  0  0  0  0  0  0  0  0
   -3.8778   -1.4155   -0.4404 H   0  0  0  0  0  0  0  0  0  0  0  0
   -5.1682   -0.6008   -2.4221 H   0  0  0  0  0  0  0  0  0  0  0  0
   -4.6390    1.0919   -2.0773 H   0  0  0  0  0  0  0  0  0  0  0  0
   -3.4342   -0.1710   -2.5455 H   0  0  0  0  0  0  0  0  0  0  0  0
   -6.2924   -0.8346   -0.2450 H   0  0  0  0  0  0  0  0  0  0  0  0
   -5.8598    0.8506    0.2407 H   0  0  0  0  0  0  0  0  0  0  0  0
   -5.4256   -0.5497    1.2968 H   0  0  0  0  0  0  0  0  0  0  0  0
  1  2  1  0
  2  3  1  0
  3  4  2  0
  3  5  1  0
  5  6  1  0
  6  7  1  0
  7  8  2  0
  7  9  1  0
  9 10  1  0
 10 11  1  0
 11 12  1  0
 11 13  2  0
 11 14  2  0
  9 15  2  0
 15 16  1  0
 16 17  2  0
 17 18  1  0
 18 19  2  0
 19 20  1  0
 20 21  2  0
 21 22  1  0
 21 23  1  0
 23 24  2  0
  1 25  1  0
 25 26  1  0
 25 27  1  0
  1 28  1  0
 28 29  2  0
 28 30  1  0
 30 31  1  0
 30 32  1  0
 30 33  1  0
 17  6  1  0
 24 18  1  0
  1 34  1  1
  2 35  1  0
  5 36  1  0
  5 37  1  0
 10 38  1  0
 12 39  1  0
 12 40  1  0
 12 41  1  0
 15 42  1  0
 19 43  1  0
 20 44  1  0
 22 45  1  0
 22 46  1  0
 23 47  1  0
 24 48  1  0
 25 49  1  0
 26 50  1  0
 26 51  1  0
 26 52  1  0
 27 53  1  0
 27 54  1  0
 27 55  1  0
M  END
$$$$
