
     RDKit          3D

 33 34  0  0  0  0  0  0  0  0999 V2000
   -0.8990   -3.0763    1.7707 O   0  0  0  0  0  0  0  0  0  0  0  0
   -0.8698   -1.7489    1.3018 C   0  0  1  0  0  0  0  0  0  0  0  0
    0.4724   -1.0990    1.5513 C   0  0  0  0  0  0  0  0  0  0  0  0
    1.1012   -1.0712    0.1685 C   0  0  1  0  0  0  0  0  0  0  0  0
    0.0676   -1.0081   -0.7860 O   0  0  0  0  0  0  0  0  0  0  0  0
   -1.0380   -1.6864   -0.2290 C   0  0  2  0  0  0  0  0  0  0  0  0
   -2.3356   -0.9844   -0.6450 C   0  0  0  0  0  0  0  0  0  0  0  0
   -2.3180    0.3524   -0.2006 O   0  0  0  0  0  0  0  0  0  0  0  0
   -3.7716    1.1021   -0.6828 P   0  0  0  0  0  5  0  0  0  0  0  0
   -3.7258    2.7309   -0.2283 O   0  0  0  0  0  0  0  0  0  0  0  0
   -3.9584    1.0009   -2.3625 O   0  0  0  0  0  0  0  0  0  0  0  0
   -4.9477    0.4364   -0.0042 O   0  0  0  0  0  0  0  0  0  0  0  0
    2.0281    0.0705    0.0218 N   0  0  0  0  0  0  0  0  0  0  0  0
    3.3730   -0.1600    0.1184 C   0  0  0  0  0  0  0  0  0  0  0  0
    4.2845    0.8861    0.0048 C   0  0  0  0  0  0  0  0  0  0  0  0
    3.7997    2.1734   -0.1974 C   0  0  0  0  0  0  0  0  0  0  0  0
    4.6016    3.1392   -0.3050 O   0  0  0  0  0  0  0  0  0  0  0  0
    2.4604    2.3864   -0.2744 N   0  0  0  0  0  0  0  0  0  0  0  0
    1.5759    1.3567   -0.1605 C   0  0  0  0  0  0  0  0  0  0  0  0
    0.3402    1.6025   -0.2192 O   0  0  0  0  0  0  0  0  0  0  0  0
   -0.1528   -3.5718    1.3406 H   0  0  0  0  0  0  0  0  0  0  0  0
   -1.6617   -1.1762    1.8340 H   0  0  0  0  0  0  0  0  0  0  0  0
    1.0996   -1.6693    2.2714 H   0  0  0  0  0  0  0  0  0  0  0  0
    0.3213   -0.0678    1.9400 H   0  0  0  0  0  0  0  0  0  0  0  0
    1.6443   -2.0325    0.0067 H   0  0  0  0  0  0  0  0  0  0  0  0
   -1.0620   -2.7152   -0.6546 H   0  0  0  0  0  0  0  0  0  0  0  0
   -3.1931   -1.5414   -0.2027 H   0  0  0  0  0  0  0  0  0  0  0  0
   -2.4056   -1.0286   -1.7556 H   0  0  0  0  0  0  0  0  0  0  0  0
   -2.8926    3.0816   -0.6329 H   0  0  0  0  0  0  0  0  0  0  0  0
   -3.1428    1.4239   -2.7323 H   0  0  0  0  0  0  0  0  0  0  0  0
    3.7536   -1.1609    0.2851 H   0  0  0  0  0  0  0  0  0  0  0  0
    5.3484    0.6962    0.0763 H   0  0  0  0  0  0  0  0  0  0  0  0
    2.1028    3.3587   -0.4186 H   0  0  0  0  0  0  0  0  0  0  0  0
  1  2  1  0
  2  3  1  0
  3  4  1  0
  4  5  1  0
  5  6  1  0
  6  7  1  0
  7  8  1  0
  8  9  1  0
  9 10  1  0
  9 11  1  0
  9 12  2  0
  4 13  1  0
 13 14  1  0
 14 15  2  0
 15 16  1  0
 16 17  2  0
 16 18  1  0
 18 19  1  0
 19 20  2  0
  6  2  1  0
 19 13  1  0
  1 21  1  0
  2 22  1  1
  3 23  1  0
  3 24  1  0
  4 25  1  6
  6 26  1  6
  7 27  1  0
  7 28  1  0
 10 29  1  0
 11 30  1  0
 14 31  1  0
 15 32  1  0
 18 33  1  0
M  END
$$$$
