
     RDKit          3D

 52 55  0  0  0  0  0  0  0  0999 V2000
   -0.4257    0.4563    2.2383 O   0  0  0  0  0  0  0  0  0  0  0  0
   -0.9818    0.5658    0.9419 C   0  0  0  0  0  0  0  0  0  0  0  0
    0.2138    0.4820   -0.0718 C   0  0  0  0  0  0  0  0  0  0  0  0
    1.3676   -0.4628    0.3305 C   0  0  0  0  0  0  0  0  0  0  0  0
    2.3168   -0.6601   -0.7894 N   0  0  0  0  0  0  0  0  0  0  0  0
    3.2235   -1.8137   -0.5396 C   0  0  0  0  0  0  0  0  0  0  0  0
    4.5796   -1.3820    0.0343 C   0  0  0  0  0  0  0  0  0  0  0  0
    5.3212   -0.4485   -0.9379 C   0  0  0  0  0  0  0  0  0  0  0  0
    4.3628    0.3420   -1.8437 C   0  0  0  0  0  0  0  0  0  0  0  0
    3.0278    0.6009   -1.1354 C   0  0  0  0  0  0  0  0  0  0  0  0
   -2.1169   -0.5249    0.7419 C   0  0  0  0  0  0  0  0  0  0  0  0
   -1.8652   -1.9326    1.3604 C   0  0  0  0  0  0  0  0  0  0  0  0
   -2.2564   -2.8854    0.2091 C   0  0  0  0  0  0  0  0  0  0  0  0
   -1.7107   -2.1455   -0.9915 C   0  0  0  0  0  0  0  0  0  0  0  0
   -2.5271   -0.8920   -0.7164 C   0  0  0  0  0  0  0  0  0  0  0  0
   -3.8937   -1.5264   -0.6265 C   0  0  0  0  0  0  0  0  0  0  0  0
   -3.7324   -2.7194   -0.0495 C   0  0  0  0  0  0  0  0  0  0  0  0
   -1.6491    1.9529    0.8055 C   0  0  0  0  0  0  0  0  0  0  0  0
   -1.8913    2.5246   -0.4658 C   0  0  0  0  0  0  0  0  0  0  0  0
   -2.5418    3.7552   -0.5890 C   0  0  0  0  0  0  0  0  0  0  0  0
   -2.9791    4.4342    0.5470 C   0  0  0  0  0  0  0  0  0  0  0  0
   -2.7716    3.8813    1.8097 C   0  0  0  0  0  0  0  0  0  0  0  0
   -2.1215    2.6508    1.9417 C   0  0  0  0  0  0  0  0  0  0  0  0
   -1.1361    0.1986    2.8821 H   0  0  0  0  0  0  0  0  0  0  0  0
   -0.1338    0.2261   -1.0918 H   0  0  0  0  0  0  0  0  0  0  0  0
    0.6649    1.4956   -0.1518 H   0  0  0  0  0  0  0  0  0  0  0  0
    1.8991   -0.0631    1.2231 H   0  0  0  0  0  0  0  0  0  0  0  0
    0.9373   -1.4365    0.6178 H   0  0  0  0  0  0  0  0  0  0  0  0
    3.3943   -2.3421   -1.5025 H   0  0  0  0  0  0  0  0  0  0  0  0
    2.7680   -2.5679    0.1394 H   0  0  0  0  0  0  0  0  0  0  0  0
    4.4108   -0.8584    1.0008 H   0  0  0  0  0  0  0  0  0  0  0  0
    5.2032   -2.2789    0.2393 H   0  0  0  0  0  0  0  0  0  0  0  0
    5.9454    0.2590   -0.3496 H   0  0  0  0  0  0  0  0  0  0  0  0
    6.0068   -1.0457   -1.5778 H   0  0  0  0  0  0  0  0  0  0  0  0
    4.8309    1.3087   -2.1298 H   0  0  0  0  0  0  0  0  0  0  0  0
    4.1707   -0.2316   -2.7771 H   0  0  0  0  0  0  0  0  0  0  0  0
    3.2282    1.2153   -0.2278 H   0  0  0  0  0  0  0  0  0  0  0  0
    2.3871    1.1998   -1.8174 H   0  0  0  0  0  0  0  0  0  0  0  0
   -3.0198   -0.1207    1.2613 H   0  0  0  0  0  0  0  0  0  0  0  0
   -0.8154   -2.0986    1.6631 H   0  0  0  0  0  0  0  0  0  0  0  0
   -2.5084   -2.1050    2.2520 H   0  0  0  0  0  0  0  0  0  0  0  0
   -1.9149   -3.9359    0.3229 H   0  0  0  0  0  0  0  0  0  0  0  0
   -0.6127   -2.0101   -0.9541 H   0  0  0  0  0  0  0  0  0  0  0  0
   -1.9748   -2.6331   -1.9605 H   0  0  0  0  0  0  0  0  0  0  0  0
   -2.4584   -0.0935   -1.4804 H   0  0  0  0  0  0  0  0  0  0  0  0
   -4.8255   -1.1330   -1.0183 H   0  0  0  0  0  0  0  0  0  0  0  0
   -4.5100   -3.4613    0.0964 H   0  0  0  0  0  0  0  0  0  0  0  0
   -1.5720    2.0314   -1.3721 H   0  0  0  0  0  0  0  0  0  0  0  0
   -2.7098    4.1815   -1.5697 H   0  0  0  0  0  0  0  0  0  0  0  0
   -3.4843    5.3863    0.4485 H   0  0  0  0  0  0  0  0  0  0  0  0
   -3.1208    4.4047    2.6905 H   0  0  0  0  0  0  0  0  0  0  0  0
   -1.9986    2.2558    2.9396 H   0  0  0  0  0  0  0  0  0  0  0  0
  1  2  1  0
  2  3  1  0
  3  4  1  0
  4  5  1  0
  5  6  1  0
  6  7  1  0
  7  8  1  0
  8  9  1  0
  9 10  1  0
  2 11  1  0
 11 12  1  0
 12 13  1  0
 13 14  1  0
 14 15  1  0
 15 16  1  0
 16 17  2  0
  2 18  1  0
 18 19  2  0
 19 20  1  0
 20 21  2  0
 21 22  1  0
 22 23  2  0
 10  5  1  0
 15 11  1  0
 23 18  1  0
 17 13  1  0
  1 24  1  0
  3 25  1  0
  3 26  1  0
  4 27  1  0
  4 28  1  0
  6 29  1  0
  6 30  1  0
  7 31  1  0
  7 32  1  0
  8 33  1  0
  8 34  1  0
  9 35  1  0
  9 36  1  0
 10 37  1  0
 10 38  1  0
 11 39  1  0
 12 40  1  0
 12 41  1  0
 13 42  1  0
 14 43  1  0
 14 44  1  0
 15 45  1  0
 16 46  1  0
 17 47  1  0
 19 48  1  0
 20 49  1  0
 21 50  1  0
 22 51  1  0
 23 52  1  0
M  END
$$$$
