
     RDKit          3D

 13 12  0  0  0  0  0  0  0  0999 V2000
   -1.9913    0.5957   -0.1107 O   0  0  0  0  0  0  0  0  0  0  0  0
   -1.2290   -0.4283    0.4700 C   0  0  0  0  0  0  0  0  0  0  0  0
    0.1434   -0.5383   -0.2026 C   0  0  0  0  0  0  0  0  0  0  0  0
    0.9795    0.7299   -0.0027 C   0  0  0  0  0  0  0  0  0  0  0  0
    2.2254    0.5917   -0.6297 O   0  0  0  0  0  0  0  0  0  0  0  0
   -2.3038    0.2539   -0.9889 H   0  0  0  0  0  0  0  0  0  0  0  0
   -1.7650   -1.4007    0.3843 H   0  0  0  0  0  0  0  0  0  0  0  0
   -1.0998   -0.2124    1.5520 H   0  0  0  0  0  0  0  0  0  0  0  0
    0.6856   -1.4047    0.2346 H   0  0  0  0  0  0  0  0  0  0  0  0
    0.0100   -0.7287   -1.2899 H   0  0  0  0  0  0  0  0  0  0  0  0
    0.4549    1.5981   -0.4550 H   0  0  0  0  0  0  0  0  0  0  0  0
    1.1156    0.9372    1.0836 H   0  0  0  0  0  0  0  0  0  0  0  0
    2.7745    0.0063   -0.0451 H   0  0  0  0  0  0  0  0  0  0  0  0
  1  2  1  0
  2  3  1  0
  3  4  1  0
  4  5  1  0
  1  6  1  0
  2  7  1  0
  2  8  1  0
  3  9  1  0
  3 10  1  0
  4 11  1  0
  4 12  1  0
  5 13  1  0
M  END
$$$$
