
     RDKit          3D

 32 32  0  0  0  0  0  0  0  0999 V2000
   -2.1829   -1.0302    1.5194 C   0  0  0  0  0  0  0  0  0  0  0  0
   -2.2275   -0.2362    0.2665 N   0  0  0  0  0  4  0  0  0  0  0  0
   -3.3613    0.7183    0.3841 C   0  0  0  0  0  0  0  0  0  0  0  0
   -2.5166   -1.1342   -0.8784 C   0  0  0  0  0  0  0  0  0  0  0  0
   -0.9240    0.4275    0.0555 C   0  0  0  0  0  0  0  0  0  0  0  0
   -0.7842    1.8355   -0.0507 C   0  0  0  0  0  0  0  0  0  0  0  0
    0.4621    2.4205   -0.2665 C   0  0  0  0  0  0  0  0  0  0  0  0
    1.6062    1.6356   -0.3748 C   0  0  0  0  0  0  0  0  0  0  0  0
    1.5279    0.2364   -0.2494 C   0  0  0  0  0  0  0  0  0  0  0  0
    0.2591   -0.3475   -0.0613 C   0  0  0  0  0  0  0  0  0  0  0  0
    2.7420   -0.6887   -0.4026 C   0  0  0  0  0  0  0  0  0  0  0  0
    2.6589   -1.2707   -1.6802 O   0  0  0  0  0  0  0  0  0  0  0  0
    2.6677   -1.7126    0.5662 O   0  0  0  0  0  0  0  0  0  0  0  0
    4.1172    0.0193   -0.2670 C   0  0  0  0  0  0  0  0  0  0  0  0
    4.1627    0.7855    0.8856 F   0  0  0  0  0  0  0  0  0  0  0  0
    5.1238   -0.9285   -0.1969 F   0  0  0  0  0  0  0  0  0  0  0  0
    4.3637    0.8238   -1.3667 F   0  0  0  0  0  0  0  0  0  0  0  0
   -1.4492   -1.8621    1.4604 H   0  0  0  0  0  0  0  0  0  0  0  0
   -3.1707   -1.4949    1.7389 H   0  0  0  0  0  0  0  0  0  0  0  0
   -1.9044   -0.3864    2.3839 H   0  0  0  0  0  0  0  0  0  0  0  0
   -4.3249    0.1848    0.5501 H   0  0  0  0  0  0  0  0  0  0  0  0
   -3.4830    1.3159   -0.5471 H   0  0  0  0  0  0  0  0  0  0  0  0
   -3.2204    1.4055    1.2485 H   0  0  0  0  0  0  0  0  0  0  0  0
   -1.7812   -1.9635   -0.9535 H   0  0  0  0  0  0  0  0  0  0  0  0
   -3.5197   -1.6070   -0.7775 H   0  0  0  0  0  0  0  0  0  0  0  0
   -2.4961   -0.5689   -1.8373 H   0  0  0  0  0  0  0  0  0  0  0  0
   -1.6231    2.5103    0.0220 H   0  0  0  0  0  0  0  0  0  0  0  0
    0.5412    3.4967   -0.3552 H   0  0  0  0  0  0  0  0  0  0  0  0
    2.5417    2.1421   -0.5532 H   0  0  0  0  0  0  0  0  0  0  0  0
    0.2003   -1.4254   -0.0099 H   0  0  0  0  0  0  0  0  0  0  0  0
    3.3122   -2.0181   -1.7150 H   0  0  0  0  0  0  0  0  0  0  0  0
    2.6827   -1.2829    1.4621 H   0  0  0  0  0  0  0  0  0  0  0  0
  1  2  1  0
  2  3  1  0
  2  4  1  0
  2  5  1  0
  5  6  2  0
  6  7  1  0
  7  8  2  0
  8  9  1  0
  9 10  2  0
  9 11  1  0
 11 12  1  0
 11 13  1  0
 11 14  1  0
 14 15  1  0
 14 16  1  0
 14 17  1  0
 10  5  1  0
  1 18  1  0
  1 19  1  0
  1 20  1  0
  3 21  1  0
  3 22  1  0
  3 23  1  0
  4 24  1  0
  4 25  1  0
  4 26  1  0
  6 27  1  0
  7 28  1  0
  8 29  1  0
 10 30  1  0
 12 31  1  0
 13 32  1  0
M  CHG  1   2   1
M  END
$$$$
