
     RDKit          3D

 45 47  0  0  0  0  0  0  0  0999 V2000
   -6.5956    2.3485   -0.5042 N   0  0  0  0  0  0  0  0  0  0  0  0
   -5.3209    1.8023   -0.1650 C   0  0  0  0  0  0  0  0  0  0  0  0
   -4.3532    2.5893    0.3941 N   0  0  0  0  0  0  0  0  0  0  0  0
   -3.1197    2.0834    0.7187 C   0  0  0  0  0  0  0  0  0  0  0  0
   -2.8276    0.7680    0.4889 N   0  0  0  0  0  0  0  0  0  0  0  0
   -3.7912   -0.0107   -0.0595 C   0  0  0  0  0  0  0  0  0  0  0  0
   -5.0125    0.4656   -0.3917 C   0  0  0  0  0  0  0  0  0  0  0  0
   -5.7627   -0.5042   -0.9481 N   0  0  0  0  0  0  0  0  0  0  0  0
   -4.9267   -1.5794   -0.9279 C   0  0  0  0  0  0  0  0  0  0  0  0
   -3.7141   -1.3096   -0.3791 N   0  0  0  0  0  0  0  0  0  0  0  0
   -2.5654   -2.2121   -0.2846 C   0  0  1  0  0  0  0  0  0  0  0  0
   -1.6098   -1.9936   -1.4413 C   0  0  0  0  0  0  0  0  0  0  0  0
   -0.2880   -2.3611   -0.8429 C   0  0  0  0  0  0  0  0  0  0  0  0
   -0.4901   -2.1040    0.6513 C   0  0  1  0  0  0  0  0  0  0  0  0
    0.2110   -0.8209    1.1111 C   0  0  0  0  0  0  0  0  0  0  0  0
    1.6054   -0.9800    0.9894 O   0  0  0  0  0  0  0  0  0  0  0  0
    2.3580    0.5080    1.3560 P   0  0  1  0  0  5  0  0  0  0  0  0
    1.8741    1.7065    0.2585 O   0  0  0  0  0  0  0  0  0  0  0  0
    1.9627    0.9426    2.7497 O   0  0  0  0  0  0  0  0  0  0  0  0
    4.0492    0.3089    1.3276 O   0  0  0  0  0  0  0  0  0  0  0  0
    4.5259    0.0203   -0.2844 P   0  0  2  0  0  5  0  0  0  0  0  0
    4.3616    1.4256   -1.2184 O   0  0  0  0  0  0  0  0  0  0  0  0
    3.6763   -1.0706   -0.8984 O   0  0  0  0  0  0  0  0  0  0  0  0
    6.1412   -0.5171   -0.3028 O   0  0  0  0  0  0  0  0  0  0  0  0
    7.1323    0.7785    0.1833 P   0  0  0  0  0  5  0  0  0  0  0  0
    7.1560    1.9731   -1.0173 O   0  0  0  0  0  0  0  0  0  0  0  0
    6.6027    1.4370    1.6524 O   0  0  0  0  0  0  0  0  0  0  0  0
    8.5383    0.2572    0.3722 O   0  0  0  0  0  0  0  0  0  0  0  0
   -1.8726   -1.9984    0.9241 O   0  0  0  0  0  0  0  0  0  0  0  0
   -6.7985    3.3568   -0.3248 H   0  0  0  0  0  0  0  0  0  0  0  0
   -7.3389    1.7533   -0.9327 H   0  0  0  0  0  0  0  0  0  0  0  0
   -2.3724    2.7300    1.1574 H   0  0  0  0  0  0  0  0  0  0  0  0
   -5.2016   -2.5487   -1.3236 H   0  0  0  0  0  0  0  0  0  0  0  0
   -2.9227   -3.2670   -0.2977 H   0  0  0  0  0  0  0  0  0  0  0  0
   -1.8634   -2.6347   -2.3134 H   0  0  0  0  0  0  0  0  0  0  0  0
   -1.5952   -0.9240   -1.7488 H   0  0  0  0  0  0  0  0  0  0  0  0
    0.5383   -1.7666   -1.2919 H   0  0  0  0  0  0  0  0  0  0  0  0
   -0.0887   -3.4424   -1.0140 H   0  0  0  0  0  0  0  0  0  0  0  0
   -0.0787   -2.9588    1.2328 H   0  0  0  0  0  0  0  0  0  0  0  0
   -0.1604    0.0252    0.4894 H   0  0  0  0  0  0  0  0  0  0  0  0
   -0.0606   -0.6395    2.1754 H   0  0  0  0  0  0  0  0  0  0  0  0
    1.6988    1.2260   -0.5897 H   0  0  0  0  0  0  0  0  0  0  0  0
    4.4466    2.1746   -0.5762 H   0  0  0  0  0  0  0  0  0  0  0  0
    7.7265    2.6933   -0.6475 H   0  0  0  0  0  0  0  0  0  0  0  0
    6.1263    2.2695    1.4060 H   0  0  0  0  0  0  0  0  0  0  0  0
  1  2  1  0
  2  3  2  0
  3  4  1  0
  4  5  2  0
  5  6  1  0
  6  7  2  0
  7  8  1  0
  8  9  2  0
  9 10  1  0
 10 11  1  0
 11 12  1  0
 12 13  1  0
 13 14  1  0
 14 15  1  0
 15 16  1  0
 17 16  1  6
 17 18  1  0
 17 19  2  0
 17 20  1  0
 21 20  1  1
 21 22  1  0
 21 23  2  0
 21 24  1  0
 24 25  1  0
 25 26  1  0
 25 27  1  0
 25 28  2  0
 14 29  1  0
  7  2  1  0
 29 11  1  0
 10  6  1  0
  1 30  1  0
  1 31  1  0
  4 32  1  0
  9 33  1  0
 11 34  1  1
 12 35  1  0
 12 36  1  0
 13 37  1  0
 13 38  1  0
 14 39  1  1
 15 40  1  0
 15 41  1  0
 18 42  1  0
 22 43  1  0
 26 44  1  0
 27 45  1  0
M  END
$$$$
