
     RDKit          3D

 32 34  0  0  0  0  0  0  0  0999 V2000
   -4.7586   -0.0932   -1.7369 N   0  0  0  0  0  0  0  0  0  0  0  0
   -4.4906   -0.1615   -0.3312 C   0  0  0  0  0  0  0  0  0  0  0  0
   -5.4559   -0.4499    0.4907 N   0  0  0  0  0  4  0  0  0  0  0  0
   -3.1163    0.0870    0.1717 C   0  0  0  0  0  0  0  0  0  0  0  0
   -1.9991   -0.3594   -0.5736 C   0  0  0  0  0  0  0  0  0  0  0  0
   -0.7298   -0.1006   -0.0638 C   0  0  0  0  0  0  0  0  0  0  0  0
   -0.5380    0.5609    1.1092 C   0  0  0  0  0  0  0  0  0  0  0  0
   -1.6040    1.0230    1.8732 C   0  0  0  0  0  0  0  0  0  0  0  0
   -2.9061    0.7816    1.3958 C   0  0  0  0  0  0  0  0  0  0  0  0
    0.7754    0.6824    1.3707 N   0  0  0  0  0  0  0  0  0  0  0  0
    1.3551    0.0550    0.3114 C   0  0  0  0  0  0  0  0  0  0  0  0
    0.4580   -0.4251   -0.5878 N   0  0  0  0  0  0  0  0  0  0  0  0
    2.8197   -0.0269    0.1195 C   0  0  0  0  0  0  0  0  0  0  0  0
    3.3436    0.1616   -1.1725 C   0  0  0  0  0  0  0  0  0  0  0  0
    4.7235    0.1606   -1.3879 C   0  0  0  0  0  0  0  0  0  0  0  0
    5.5980   -0.0272   -0.3181 C   0  0  0  0  0  0  0  0  0  0  0  0
    5.0946   -0.2307    0.9677 C   0  0  0  0  0  0  0  0  0  0  0  0
    3.7130   -0.2511    1.1973 C   0  0  0  0  0  0  0  0  0  0  0  0
    3.2709   -0.5284    2.4926 O   0  0  0  0  0  0  0  0  0  0  0  0
   -5.7095   -0.3098   -2.1106 H   0  0  0  0  0  0  0  0  0  0  0  0
   -4.0260    0.2215   -2.4106 H   0  0  0  0  0  0  0  0  0  0  0  0
   -5.2938   -0.5460    1.5178 H   0  0  0  0  0  0  0  0  0  0  0  0
   -6.4238   -0.6221    0.1376 H   0  0  0  0  0  0  0  0  0  0  0  0
   -2.1132   -0.9021   -1.5034 H   0  0  0  0  0  0  0  0  0  0  0  0
   -1.4388    1.5546    2.8013 H   0  0  0  0  0  0  0  0  0  0  0  0
   -3.7453    1.1535    1.9693 H   0  0  0  0  0  0  0  0  0  0  0  0
    0.6443   -0.9365   -1.4793 H   0  0  0  0  0  0  0  0  0  0  0  0
    2.6854    0.3393   -2.0140 H   0  0  0  0  0  0  0  0  0  0  0  0
    5.1152    0.3167   -2.3848 H   0  0  0  0  0  0  0  0  0  0  0  0
    6.6672   -0.0221   -0.4861 H   0  0  0  0  0  0  0  0  0  0  0  0
    5.7811   -0.3939    1.7890 H   0  0  0  0  0  0  0  0  0  0  0  0
    2.3037   -0.7111    2.7225 H   0  0  0  0  0  0  0  0  0  0  0  0
  1  2  1  0
  2  3  2  3
  2  4  1  0
  4  5  2  0
  5  6  1  0
  6  7  2  0
  7  8  1  0
  8  9  2  0
  7 10  1  0
 10 11  2  0
 11 12  1  0
 11 13  1  0
 13 14  2  0
 14 15  1  0
 15 16  2  0
 16 17  1  0
 17 18  2  0
 18 19  1  0
  9  4  1  0
 18 13  1  0
 12  6  1  0
  1 20  1  0
  1 21  1  0
  3 22  1  0
  3 23  1  0
  5 24  1  0
  8 25  1  0
  9 26  1  0
 12 27  1  0
 14 28  1  0
 15 29  1  0
 16 30  1  0
 17 31  1  0
 19 32  1  0
M  CHG  1   3   1
M  END
$$$$
