
     RDKit          3D

 28 30  0  0  0  0  0  0  0  0999 V2000
   -3.4268    1.7596   -0.3877 O   0  0  0  0  0  0  0  0  0  0  0  0
   -2.9497    0.4553   -0.2565 C   0  0  0  0  0  0  0  0  0  0  0  0
   -3.8331   -0.6219   -0.4106 C   0  0  0  0  0  0  0  0  0  0  0  0
   -3.3735   -1.9330   -0.2930 C   0  0  0  0  0  0  0  0  0  0  0  0
   -2.0276   -2.1815   -0.0244 C   0  0  0  0  0  0  0  0  0  0  0  0
   -1.1251   -1.1150    0.1272 C   0  0  0  0  0  0  0  0  0  0  0  0
   -1.5851    0.2121    0.0194 C   0  0  0  0  0  0  0  0  0  0  0  0
   -0.6232    1.3192    0.2362 C   0  0  0  0  0  0  0  0  0  0  0  0
   -1.0505    2.4515    0.5874 O   0  0  0  0  0  0  0  0  0  0  0  0
    0.8418    1.0587    0.1479 C   0  0  0  0  0  0  0  0  0  0  0  0
    1.7869    2.1092    0.0051 C   0  0  0  0  0  0  0  0  0  0  0  0
    1.4222    3.4325   -0.2548 O   0  0  0  0  0  0  0  0  0  0  0  0
    3.1505    1.8310    0.0892 C   0  0  0  0  0  0  0  0  0  0  0  0
    3.6025    0.5226    0.2091 C   0  0  0  0  0  0  0  0  0  0  0  0
    2.6984   -0.5450    0.2475 C   0  0  0  0  0  0  0  0  0  0  0  0
    1.3026   -0.2813    0.2569 C   0  0  0  0  0  0  0  0  0  0  0  0
    0.3002   -1.3718    0.4239 C   0  0  0  0  0  0  0  0  0  0  0  0
    0.6454   -2.5024    0.8631 O   0  0  0  0  0  0  0  0  0  0  0  0
    3.2158   -1.8835    0.2169 N   0  0  0  0  0  4  0  0  0  0  0  0
    2.7889   -2.7567   -0.7571 O   0  0  0  0  0  1  0  0  0  0  0  0
    4.2210   -2.1798    0.8953 O   0  0  0  0  0  0  0  0  0  0  0  0
   -4.4012    1.9524   -0.5885 H   0  0  0  0  0  0  0  0  0  0  0  0
   -4.8794   -0.4425   -0.6229 H   0  0  0  0  0  0  0  0  0  0  0  0
   -4.0621   -2.7595   -0.4125 H   0  0  0  0  0  0  0  0  0  0  0  0
   -1.6910   -3.2075    0.0585 H   0  0  0  0  0  0  0  0  0  0  0  0
    0.5124    3.7072   -0.5975 H   0  0  0  0  0  0  0  0  0  0  0  0
    3.8707    2.6355    0.0071 H   0  0  0  0  0  0  0  0  0  0  0  0
    4.6691    0.3348    0.2149 H   0  0  0  0  0  0  0  0  0  0  0  0
  1  2  1  0
  2  3  2  0
  3  4  1  0
  4  5  2  0
  5  6  1  0
  6  7  2  0
  7  8  1  0
  8  9  2  0
  8 10  1  0
 10 11  2  0
 11 12  1  0
 11 13  1  0
 13 14  2  0
 14 15  1  0
 15 16  2  0
 16 17  1  0
 17 18  2  0
 15 19  1  0
 19 20  1  0
 19 21  2  0
  7  2  1  0
 16 10  1  0
 17  6  1  0
  1 22  1  0
  3 23  1  0
  4 24  1  0
  5 25  1  0
 12 26  1  0
 13 27  1  0
 14 28  1  0
M  CHG  2  19   1  20  -1
M  END
$$$$
