
     RDKit          3D

 58 61  0  0  0  0  0  0  0  0999 V2000
   -3.6654   -1.4850    0.7656 C   0  0  2  0  0  0  0  0  0  0  0  0
   -2.6664   -1.3986   -0.4066 C   0  0  0  0  0  0  0  0  0  0  0  0
   -2.5318    0.0695   -0.8689 C   0  0  1  0  0  0  0  0  0  0  0  0
   -3.9148    0.5913   -1.3180 C   0  0  0  0  0  0  0  0  0  0  0  0
   -4.9318    0.5207   -0.1386 C   0  0  1  0  0  0  0  0  0  0  0  0
   -5.0460   -0.9612    0.3132 C   0  0  0  0  0  0  0  0  0  0  0  0
   -4.3834    1.3740    1.0419 C   0  0  0  0  0  0  0  0  0  0  0  0
   -2.9998    0.8443    1.4870 C   0  0  1  0  0  0  0  0  0  0  0  0
   -3.1550   -0.6286    1.9417 C   0  0  0  0  0  0  0  0  0  0  0  0
   -2.0118    0.9577    0.2929 C   0  0  1  0  0  0  0  0  0  0  0  0
   -0.6434    0.5879    0.6798 N   0  0  0  0  0  0  0  0  0  0  0  0
    0.4803    0.7936   -0.1938 C   0  0  0  0  0  0  0  0  0  0  0  0
    0.3389    1.4867   -1.2390 O   0  0  0  0  0  0  0  0  0  0  0  0
    1.8397    0.2076    0.1335 C   0  0  0  0  0  0  0  0  0  0  0  0
    2.3977    0.8936    1.3938 C   0  0  0  0  0  0  0  0  0  0  0  0
    1.7010   -1.3095    0.3654 C   0  0  0  0  0  0  0  0  0  0  0  0
    2.7119    0.4502   -0.9830 O   0  0  0  0  0  0  0  0  0  0  0  0
    4.0514    0.0487   -1.0417 C   0  0  0  0  0  0  0  0  0  0  0  0
    4.3889   -1.1919   -1.5947 C   0  0  0  0  0  0  0  0  0  0  0  0
    5.7273   -1.5887   -1.6657 C   0  0  0  0  0  0  0  0  0  0  0  0
    6.7441   -0.7476   -1.1967 C   0  0  0  0  0  0  0  0  0  0  0  0
    8.0717   -1.1914   -1.2880 O   0  0  0  0  0  0  0  0  0  0  0  0
    9.2010   -0.4423   -0.8511 C   0  0  0  0  0  0  0  0  0  0  0  0
    6.4022    0.5075   -0.6557 C   0  0  0  0  0  0  0  0  0  0  0  0
    5.0627    0.9022   -0.5856 C   0  0  0  0  0  0  0  0  0  0  0  0
   -6.2980    1.0398   -0.5625 C   0  0  0  0  0  0  0  0  0  0  0  0
   -7.3914    1.0657    0.3592 N   0  0  0  0  0  0  0  0  0  0  0  0
   -6.4870    1.4564   -1.7381 O   0  0  0  0  0  0  0  0  0  0  0  0
   -3.7607   -2.5434    1.0926 H   0  0  0  0  0  0  0  0  0  0  0  0
   -1.6757   -1.7947   -0.0930 H   0  0  0  0  0  0  0  0  0  0  0  0
   -3.0195   -2.0302   -1.2512 H   0  0  0  0  0  0  0  0  0  0  0  0
   -1.8353    0.1177   -1.7330 H   0  0  0  0  0  0  0  0  0  0  0  0
   -4.2766   -0.0184   -2.1761 H   0  0  0  0  0  0  0  0  0  0  0  0
   -3.8135    1.6398   -1.6775 H   0  0  0  0  0  0  0  0  0  0  0  0
   -5.7641   -1.0634    1.1557 H   0  0  0  0  0  0  0  0  0  0  0  0
   -5.4283   -1.5891   -0.5223 H   0  0  0  0  0  0  0  0  0  0  0  0
   -4.2963    2.4402    0.7352 H   0  0  0  0  0  0  0  0  0  0  0  0
   -5.0784    1.3402    1.9090 H   0  0  0  0  0  0  0  0  0  0  0  0
   -2.6303    1.4582    2.3374 H   0  0  0  0  0  0  0  0  0  0  0  0
   -3.8728   -0.6869    2.7894 H   0  0  0  0  0  0  0  0  0  0  0  0
   -2.1928   -1.0372    2.3147 H   0  0  0  0  0  0  0  0  0  0  0  0
   -1.9921    2.0200   -0.0411 H   0  0  0  0  0  0  0  0  0  0  0  0
   -0.4620    0.2273    1.6416 H   0  0  0  0  0  0  0  0  0  0  0  0
    3.3841    0.4642    1.6691 H   0  0  0  0  0  0  0  0  0  0  0  0
    2.5253    1.9823    1.2122 H   0  0  0  0  0  0  0  0  0  0  0  0
    1.7200    0.7566    2.2624 H   0  0  0  0  0  0  0  0  0  0  0  0
    1.3097   -1.8021   -0.5505 H   0  0  0  0  0  0  0  0  0  0  0  0
    2.6853   -1.7591    0.6145 H   0  0  0  0  0  0  0  0  0  0  0  0
    1.0125   -1.5307    1.2077 H   0  0  0  0  0  0  0  0  0  0  0  0
    3.6138   -1.8490   -1.9675 H   0  0  0  0  0  0  0  0  0  0  0  0
    5.9766   -2.5534   -2.0893 H   0  0  0  0  0  0  0  0  0  0  0  0
    9.2670    0.5124   -1.4143 H   0  0  0  0  0  0  0  0  0  0  0  0
   10.1219   -1.0310   -1.0407 H   0  0  0  0  0  0  0  0  0  0  0  0
    9.1265   -0.2395    0.2382 H   0  0  0  0  0  0  0  0  0  0  0  0
    7.1621    1.1844   -0.2901 H   0  0  0  0  0  0  0  0  0  0  0  0
    4.8102    1.8718   -0.1760 H   0  0  0  0  0  0  0  0  0  0  0  0
   -8.3232    1.4248    0.0545 H   0  0  0  0  0  0  0  0  0  0  0  0
   -7.2859    0.7317    1.3420 H   0  0  0  0  0  0  0  0  0  0  0  0
  1  2  1  0
  2  3  1  0
  3  4  1  0
  4  5  1  0
  5  6  1  0
  5  7  1  0
  7  8  1  0
  8  9  1  0
  8 10  1  0
 10 11  1  0
 11 12  1  0
 12 13  2  0
 12 14  1  0
 14 15  1  0
 14 16  1  0
 14 17  1  0
 17 18  1  0
 18 19  2  0
 19 20  1  0
 20 21  2  0
 21 22  1  0
 22 23  1  0
 21 24  1  0
 24 25  2  0
  5 26  1  6
 26 27  1  0
 26 28  2  0
  6  1  1  0
 25 18  1  0
  9  1  1  0
 10  3  1  0
  1 29  1  1
  2 30  1  0
  2 31  1  0
  3 32  1  6
  4 33  1  0
  4 34  1  0
  6 35  1  0
  6 36  1  0
  7 37  1  0
  7 38  1  0
  8 39  1  1
  9 40  1  0
  9 41  1  0
 10 42  1  6
 11 43  1  0
 15 44  1  0
 15 45  1  0
 15 46  1  0
 16 47  1  0
 16 48  1  0
 16 49  1  0
 19 50  1  0
 20 51  1  0
 23 52  1  0
 23 53  1  0
 23 54  1  0
 24 55  1  0
 25 56  1  0
 27 57  1  0
 27 58  1  0
M  END
$$$$
