
     RDKit          3D

 45 46  0  0  0  0  0  0  0  0999 V2000
    3.4444   -1.0991    2.1445 C   0  0  0  0  0  0  0  0  0  0  0  0
    3.4261   -1.7810    0.8159 C   0  0  0  0  0  0  0  0  0  0  0  0
    2.8074   -2.8715    0.6845 O   0  0  0  0  0  0  0  0  0  0  0  0
    4.1159   -1.1935   -0.2961 N   0  0  0  0  0  0  0  0  0  0  0  0
    4.1064   -1.7719   -1.6390 C   0  0  0  0  0  0  0  0  0  0  0  0
    3.3121   -0.8922   -2.6049 C   0  0  0  0  0  0  0  0  0  0  0  0
    1.9284   -0.8744   -2.2563 O   0  0  0  0  0  0  0  0  0  0  0  0
    1.3648    0.0432   -1.3619 C   0  0  0  0  0  0  0  0  0  0  0  0
    2.0635    0.9640   -0.8556 O   0  0  0  0  0  0  0  0  0  0  0  0
   -0.0761   -0.0964   -0.9805 C   0  0  2  0  0  0  0  0  0  0  0  0
   -0.6879    1.1962   -0.9573 O   0  0  0  0  0  0  0  0  0  0  0  0
   -2.0639    1.4414   -0.8166 C   0  0  0  0  0  0  0  0  0  0  0  0
   -3.0164    0.4070   -0.7502 C   0  0  0  0  0  0  0  0  0  0  0  0
   -4.3703    0.7087   -0.5903 C   0  0  0  0  0  0  0  0  0  0  0  0
   -4.7901    2.0379   -0.5070 C   0  0  0  0  0  0  0  0  0  0  0  0
   -3.8574    3.0843   -0.6033 C   0  0  0  0  0  0  0  0  0  0  0  0
   -2.4927    2.7721   -0.7365 C   0  0  0  0  0  0  0  0  0  0  0  0
   -4.3015    4.5189   -0.4647 C   0  0  0  0  0  0  0  0  0  0  0  0
   -4.2644    4.8797    0.8692 F   0  0  0  0  0  0  0  0  0  0  0  0
   -5.5915    4.6805   -0.9399 F   0  0  0  0  0  0  0  0  0  0  0  0
   -3.4682    5.3593   -1.1826 F   0  0  0  0  0  0  0  0  0  0  0  0
   -0.1726   -0.7700    0.3691 C   0  0  0  0  0  0  0  0  0  0  0  0
    0.0062   -0.0350    1.5551 C   0  0  0  0  0  0  0  0  0  0  0  0
   -0.0556   -0.6730    2.7972 C   0  0  0  0  0  0  0  0  0  0  0  0
   -0.2819   -2.0509    2.8673 C   0  0  0  0  0  0  0  0  0  0  0  0
   -0.3432   -2.8519    4.4262 Cl  0  0  0  0  0  0  0  0  0  0  0  0
   -0.4482   -2.7912    1.6929 C   0  0  0  0  0  0  0  0  0  0  0  0
   -0.3903   -2.1559    0.4490 C   0  0  0  0  0  0  0  0  0  0  0  0
    2.8481   -1.6710    2.8869 H   0  0  0  0  0  0  0  0  0  0  0  0
    4.4905   -1.0206    2.5065 H   0  0  0  0  0  0  0  0  0  0  0  0
    3.0153   -0.0805    2.0446 H   0  0  0  0  0  0  0  0  0  0  0  0
    4.6136   -0.2853   -0.1548 H   0  0  0  0  0  0  0  0  0  0  0  0
    3.6782   -2.7972   -1.6350 H   0  0  0  0  0  0  0  0  0  0  0  0
    5.1539   -1.8492   -2.0008 H   0  0  0  0  0  0  0  0  0  0  0  0
    3.4065   -1.3226   -3.6241 H   0  0  0  0  0  0  0  0  0  0  0  0
    3.7303    0.1378   -2.6378 H   0  0  0  0  0  0  0  0  0  0  0  0
   -0.5756   -0.7123   -1.7609 H   0  0  0  0  0  0  0  0  0  0  0  0
   -2.7239   -0.6314   -0.8131 H   0  0  0  0  0  0  0  0  0  0  0  0
   -5.0968   -0.0911   -0.5256 H   0  0  0  0  0  0  0  0  0  0  0  0
   -5.8430    2.2474   -0.3663 H   0  0  0  0  0  0  0  0  0  0  0  0
   -1.7537    3.5630   -0.7734 H   0  0  0  0  0  0  0  0  0  0  0  0
    0.1978    1.0300    1.5182 H   0  0  0  0  0  0  0  0  0  0  0  0
    0.0830   -0.0973    3.7033 H   0  0  0  0  0  0  0  0  0  0  0  0
   -0.6164   -3.8595    1.7421 H   0  0  0  0  0  0  0  0  0  0  0  0
   -0.5108   -2.7450   -0.4516 H   0  0  0  0  0  0  0  0  0  0  0  0
  1  2  1  0
  2  3  2  0
  2  4  1  0
  4  5  1  0
  5  6  1  0
  6  7  1  0
  7  8  1  0
  8  9  2  0
  8 10  1  0
 10 11  1  0
 11 12  1  0
 12 13  2  0
 13 14  1  0
 14 15  2  0
 15 16  1  0
 16 17  2  0
 16 18  1  0
 18 19  1  0
 18 20  1  0
 18 21  1  0
 10 22  1  0
 22 23  2  0
 23 24  1  0
 24 25  2  0
 25 26  1  0
 25 27  1  0
 27 28  2  0
 17 12  1  0
 28 22  1  0
  1 29  1  0
  1 30  1  0
  1 31  1  0
  4 32  1  0
  5 33  1  0
  5 34  1  0
  6 35  1  0
  6 36  1  0
 10 37  1  6
 13 38  1  0
 14 39  1  0
 15 40  1  0
 17 41  1  0
 23 42  1  0
 24 43  1  0
 27 44  1  0
 28 45  1  0
M  END
$$$$
