
     RDKit          3D

 42 44  0  0  0  0  0  0  0  0999 V2000
   -6.1333   -3.5086    0.5424 F   0  0  0  0  0  0  0  0  0  0  0  0
   -6.2784   -2.3279    1.2465 C   0  0  0  0  0  0  0  0  0  0  0  0
   -7.6245   -2.0164    1.3318 F   0  0  0  0  0  0  0  0  0  0  0  0
   -5.7954   -2.5070    2.5313 F   0  0  0  0  0  0  0  0  0  0  0  0
   -5.5202   -1.2318    0.5389 C   0  0  0  0  0  0  0  0  0  0  0  0
   -6.1392   -0.4803   -0.4736 C   0  0  0  0  0  0  0  0  0  0  0  0
   -5.4247    0.5025   -1.1784 C   0  0  0  0  0  0  0  0  0  0  0  0
   -4.0841    0.7497   -0.8399 C   0  0  0  0  0  0  0  0  0  0  0  0
   -3.4410   -0.0119    0.1493 C   0  0  0  0  0  0  0  0  0  0  0  0
   -4.1625   -1.0108    0.8232 C   0  0  0  0  0  0  0  0  0  0  0  0
   -2.0193    0.2344    0.4771 C   0  0  0  0  0  0  0  0  0  0  0  0
   -1.3387   -0.4459    1.4226 N   0  0  0  0  0  0  0  0  0  0  0  0
   -0.1155    0.0485    1.4068 N   0  0  0  0  0  0  0  0  0  0  0  0
    0.8973   -0.3125    2.3553 C   0  0  0  0  0  0  0  0  0  0  0  0
    2.1990   -0.4312    2.0537 C   0  0  0  0  0  0  0  0  0  0  0  0
    2.7636   -0.4191    0.6888 C   0  0  0  0  0  0  0  0  0  0  0  0
    2.0464   -0.7163   -0.3046 O   0  0  0  0  0  0  0  0  0  0  0  0
    4.1545   -0.1279    0.5045 N   0  0  0  0  0  0  0  0  0  0  0  0
    4.7523   -0.1898   -0.7686 N   0  0  0  0  0  0  0  0  0  0  0  0
    6.1034    0.2294   -1.0109 C   0  0  0  0  0  0  0  0  0  0  0  0
    6.7531   -0.2304   -2.1151 N   0  0  0  0  0  0  0  0  0  0  0  0
    8.0269    0.1458   -2.4004 C   0  0  0  0  0  0  0  0  0  0  0  0
    8.6866    1.0318   -1.5487 C   0  0  0  0  0  0  0  0  0  0  0  0
    8.0405    1.5104   -0.4541 N   0  0  0  0  0  0  0  0  0  0  0  0
    6.7667    1.1347   -0.1647 C   0  0  0  0  0  0  0  0  0  0  0  0
   -0.0747    1.0394    0.4976 C   0  0  0  0  0  0  0  0  0  0  0  0
   -1.2613    1.1809   -0.1235 N   0  0  0  0  0  0  0  0  0  0  0  0
   -6.1157    1.3468   -2.2208 C   0  0  0  0  0  0  0  0  0  0  0  0
   -5.2169    1.7655   -3.1867 F   0  0  0  0  0  0  0  0  0  0  0  0
   -7.1183    0.6276   -2.8483 F   0  0  0  0  0  0  0  0  0  0  0  0
   -6.6714    2.4564   -1.6118 F   0  0  0  0  0  0  0  0  0  0  0  0
   -7.1797   -0.6609   -0.7139 H   0  0  0  0  0  0  0  0  0  0  0  0
   -3.5397    1.5332   -1.3528 H   0  0  0  0  0  0  0  0  0  0  0  0
   -3.6694   -1.6146    1.5752 H   0  0  0  0  0  0  0  0  0  0  0  0
    0.5945   -0.4849    3.3809 H   0  0  0  0  0  0  0  0  0  0  0  0
    2.8888   -0.6041    2.8708 H   0  0  0  0  0  0  0  0  0  0  0  0
    4.7321    0.0884    1.3468 H   0  0  0  0  0  0  0  0  0  0  0  0
    4.2306   -0.6284   -1.5608 H   0  0  0  0  0  0  0  0  0  0  0  0
    8.5218   -0.2390   -3.2820 H   0  0  0  0  0  0  0  0  0  0  0  0
    9.7009    1.3433   -1.7596 H   0  0  0  0  0  0  0  0  0  0  0  0
    6.2794    1.5623    0.6994 H   0  0  0  0  0  0  0  0  0  0  0  0
    0.7851    1.6691    0.3082 H   0  0  0  0  0  0  0  0  0  0  0  0
  1  2  1  0
  2  3  1  0
  2  4  1  0
  2  5  1  0
  5  6  2  0
  6  7  1  0
  7  8  2  0
  8  9  1  0
  9 10  2  0
  9 11  1  0
 11 12  2  0
 12 13  1  0
 13 14  1  0
 14 15  2  0
 15 16  1  0
 16 17  2  0
 16 18  1  0
 18 19  1  0
 19 20  1  0
 20 21  2  0
 21 22  1  0
 22 23  2  0
 23 24  1  0
 24 25  2  0
 13 26  1  0
 26 27  2  0
  7 28  1  0
 28 29  1  0
 28 30  1  0
 28 31  1  0
 10  5  1  0
 27 11  1  0
 25 20  1  0
  6 32  1  0
  8 33  1  0
 10 34  1  0
 14 35  1  0
 15 36  1  0
 18 37  1  0
 19 38  1  0
 22 39  1  0
 23 40  1  0
 25 41  1  0
 26 42  1  0
M  END
$$$$
