
     RDKit          3D

 67 70  0  0  0  0  0  0  0  0999 V2000
    2.7997   -0.8215   -2.8832 C   0  0  0  0  0  0  0  0  0  0  0  0
    1.7629    0.3021   -2.7320 C   0  0  0  0  0  0  0  0  0  0  0  0
    1.5296    0.9730   -4.0928 C   0  0  0  0  0  0  0  0  0  0  0  0
    2.1931    1.3707   -1.6918 C   0  0  0  0  0  0  0  0  0  0  0  0
    2.2214    0.9130   -0.2125 C   0  0  2  0  0  0  0  0  0  0  0  0
    3.3288   -0.0158    0.0530 N   0  0  0  0  0  0  0  0  0  0  0  0
    4.7016    0.4044    0.0386 C   0  0  0  0  0  0  0  0  0  0  0  0
    4.9914    1.6270   -0.0690 O   0  0  0  0  0  0  0  0  0  0  0  0
    5.7791   -0.5895    0.1507 C   0  0  0  0  0  0  0  0  0  0  0  0
    7.1438   -0.3064    0.1618 C   0  0  0  0  0  0  0  0  0  0  0  0
    7.7443   -1.5386    0.2755 C   0  0  0  0  0  0  0  0  0  0  0  0
    6.7427   -2.4714    0.3254 C   0  0  0  0  0  0  0  0  0  0  0  0
    5.5707   -1.8909    0.2497 O   0  0  0  0  0  0  0  0  0  0  0  0
    7.0147   -3.8326    0.4405 C   0  0  0  0  0  0  0  0  0  0  0  0
    8.3637   -4.2292    0.5051 C   0  0  0  0  0  0  0  0  0  0  0  0
    9.3964   -3.2655    0.4534 C   0  0  0  0  0  0  0  0  0  0  0  0
    9.0891   -1.8970    0.3367 C   0  0  0  0  0  0  0  0  0  0  0  0
    0.8885    0.3417    0.2122 C   0  0  0  0  0  0  0  0  0  0  0  0
    0.6800   -0.9015    0.1513 O   0  0  0  0  0  0  0  0  0  0  0  0
   -0.1705    1.2273    0.6052 N   0  0  0  0  0  0  0  0  0  0  0  0
   -1.5416    0.7521    0.8242 C   0  0  1  0  0  0  0  0  0  0  0  0
   -2.3267    1.7701    1.6754 C   0  0  0  0  0  0  0  0  0  0  0  0
   -3.5120    1.1630    2.4519 C   0  0  0  0  0  0  0  0  0  0  0  0
   -4.2949    0.0560    1.7275 C   0  0  0  0  0  0  0  0  0  0  0  0
   -4.5543    0.4086    0.3121 N   0  0  0  0  0  0  0  0  0  0  0  0
   -3.5440   -0.1942   -0.5828 C   0  0  0  0  0  0  0  0  0  0  0  0
   -2.2437    0.5581   -0.5025 C   0  0  0  0  0  0  0  0  0  0  0  0
   -1.7816    1.0585   -1.5187 O   0  0  0  0  0  0  0  0  0  0  0  0
   -6.1457   -0.1478   -0.1561 S   0  0  0  0  0  6  0  0  0  0  0  0
   -6.2516   -1.6279    0.0904 O   0  0  0  0  0  0  0  0  0  0  0  0
   -6.3865    0.1350   -1.6129 O   0  0  0  0  0  0  0  0  0  0  0  0
   -7.3673    0.7011    0.7795 C   0  0  0  0  0  0  0  0  0  0  0  0
   -8.6166    0.1159    1.0193 C   0  0  0  0  0  0  0  0  0  0  0  0
   -9.5666    0.8162    1.7659 C   0  0  0  0  0  0  0  0  0  0  0  0
   -9.2634    2.0864    2.2603 C   0  0  0  0  0  0  0  0  0  0  0  0
   -8.0082    2.6398    1.9967 C   0  0  0  0  0  0  0  0  0  0  0  0
   -7.0965    1.9425    1.2675 N   0  0  0  0  0  0  0  0  0  0  0  0
    2.7911   -1.4825   -1.9948 H   0  0  0  0  0  0  0  0  0  0  0  0
    2.5548   -1.4614   -3.7578 H   0  0  0  0  0  0  0  0  0  0  0  0
    3.8193   -0.4030   -3.0243 H   0  0  0  0  0  0  0  0  0  0  0  0
    0.7959   -0.1510   -2.4254 H   0  0  0  0  0  0  0  0  0  0  0  0
    1.1798    0.2263   -4.8375 H   0  0  0  0  0  0  0  0  0  0  0  0
    2.4670    1.4399   -4.4651 H   0  0  0  0  0  0  0  0  0  0  0  0
    0.7470    1.7570   -4.0069 H   0  0  0  0  0  0  0  0  0  0  0  0
    3.1864    1.7810   -1.9744 H   0  0  0  0  0  0  0  0  0  0  0  0
    1.4809    2.2239   -1.7523 H   0  0  0  0  0  0  0  0  0  0  0  0
    2.3918    1.8187    0.4110 H   0  0  0  0  0  0  0  0  0  0  0  0
    3.1280   -1.0122    0.2955 H   0  0  0  0  0  0  0  0  0  0  0  0
    7.6249    0.6609    0.0946 H   0  0  0  0  0  0  0  0  0  0  0  0
    6.2153   -4.5610    0.4788 H   0  0  0  0  0  0  0  0  0  0  0  0
    8.6115   -5.2788    0.5948 H   0  0  0  0  0  0  0  0  0  0  0  0
   10.4302   -3.5816    0.5038 H   0  0  0  0  0  0  0  0  0  0  0  0
    9.8716   -1.1502    0.2960 H   0  0  0  0  0  0  0  0  0  0  0  0
    0.0153    2.2565    0.6009 H   0  0  0  0  0  0  0  0  0  0  0  0
   -1.4949   -0.2165    1.3691 H   0  0  0  0  0  0  0  0  0  0  0  0
   -1.6436    2.2316    2.4224 H   0  0  0  0  0  0  0  0  0  0  0  0
   -2.6933    2.6002    1.0304 H   0  0  0  0  0  0  0  0  0  0  0  0
   -4.2133    1.9857    2.7133 H   0  0  0  0  0  0  0  0  0  0  0  0
   -3.1347    0.7443    3.4106 H   0  0  0  0  0  0  0  0  0  0  0  0
   -5.2410   -0.0815    2.2957 H   0  0  0  0  0  0  0  0  0  0  0  0
   -3.7556   -0.9126    1.8265 H   0  0  0  0  0  0  0  0  0  0  0  0
   -3.3732   -1.2680   -0.3471 H   0  0  0  0  0  0  0  0  0  0  0  0
   -3.8916   -0.1540   -1.6386 H   0  0  0  0  0  0  0  0  0  0  0  0
   -8.8515   -0.8677    0.6331 H   0  0  0  0  0  0  0  0  0  0  0  0
  -10.5359    0.3758    1.9604 H   0  0  0  0  0  0  0  0  0  0  0  0
   -9.9932    2.6366    2.8399 H   0  0  0  0  0  0  0  0  0  0  0  0
   -7.7588    3.6235    2.3712 H   0  0  0  0  0  0  0  0  0  0  0  0
  1  2  1  0
  2  3  1  0
  2  4  1  0
  4  5  1  0
  5  6  1  0
  6  7  1  0
  7  8  2  0
  7  9  1  0
  9 10  2  0
 10 11  1  0
 11 12  2  0
 12 13  1  0
 12 14  1  0
 14 15  2  0
 15 16  1  0
 16 17  2  0
  5 18  1  0
 18 19  2  0
 18 20  1  0
 20 21  1  0
 21 22  1  0
 22 23  1  0
 23 24  1  0
 24 25  1  0
 25 26  1  0
 26 27  1  0
 27 28  2  0
 25 29  1  0
 29 30  2  0
 29 31  2  0
 29 32  1  0
 32 33  2  0
 33 34  1  0
 34 35  2  0
 35 36  1  0
 36 37  2  0
 13  9  1  0
 27 21  1  0
 37 32  1  0
 17 11  1  0
  1 38  1  0
  1 39  1  0
  1 40  1  0
  2 41  1  0
  3 42  1  0
  3 43  1  0
  3 44  1  0
  4 45  1  0
  4 46  1  0
  5 47  1  1
  6 48  1  0
 10 49  1  0
 14 50  1  0
 15 51  1  0
 16 52  1  0
 17 53  1  0
 20 54  1  0
 21 55  1  1
 22 56  1  0
 22 57  1  0
 23 58  1  0
 23 59  1  0
 24 60  1  0
 24 61  1  0
 26 62  1  0
 26 63  1  0
 33 64  1  0
 34 65  1  0
 35 66  1  0
 36 67  1  0
M  END
$$$$
