
     RDKit          3D

 56 59  0  0  0  0  0  0  0  0999 V2000
    0.8346   -2.6654   -1.6871 C   0  0  0  0  0  0  0  0  0  0  0  0
    0.0730   -1.6950   -0.8218 C   0  0  0  0  0  0  0  0  0  0  0  0
   -1.2888   -1.4926   -1.0784 C   0  0  0  0  0  0  0  0  0  0  0  0
   -2.0635   -0.5806   -0.3299 C   0  0  0  0  0  0  0  0  0  0  0  0
   -1.4611    0.0712    0.7841 C   0  0  0  0  0  0  0  0  0  0  0  0
   -0.0832   -0.1222    1.0148 C   0  0  0  0  0  0  0  0  0  0  0  0
    0.6802   -1.0178    0.2547 C   0  0  0  0  0  0  0  0  0  0  0  0
    2.1550   -1.1592    0.5718 C   0  0  0  0  0  0  0  0  0  0  0  0
    2.6920   -2.5379    0.9554 C   0  0  0  0  0  0  0  0  0  0  0  0
    2.4601   -1.4974    2.0335 C   0  0  0  0  0  0  0  0  0  0  0  0
    3.1020   -0.1464   -0.0112 C   0  0  0  0  0  0  0  0  0  0  0  0
    3.9854   -0.4842   -1.0450 C   0  0  0  0  0  0  0  0  0  0  0  0
    4.8267    0.4942   -1.5767 C   0  0  0  0  0  0  0  0  0  0  0  0
    4.7835    1.8074   -1.0841 C   0  0  0  0  0  0  0  0  0  0  0  0
    3.8778    2.1036   -0.0519 C   0  0  0  0  0  0  0  0  0  0  0  0
    3.0689    1.1334    0.4496 N   0  0  0  0  0  0  0  0  0  0  0  0
    5.6703    2.8512   -1.6419 C   0  0  0  0  0  0  0  0  0  0  0  0
    6.5619    2.5406   -2.6655 O   0  0  0  0  0  0  0  0  0  0  0  0
    5.6274    4.0301   -1.1968 O   0  0  0  0  0  0  0  0  0  0  0  0
   -2.2360    1.0392    1.6923 C   0  0  0  0  0  0  0  0  0  0  0  0
   -1.9554    0.7361    3.1859 C   0  0  0  0  0  0  0  0  0  0  0  0
   -1.7836    2.4857    1.3872 C   0  0  0  0  0  0  0  0  0  0  0  0
   -3.7659    0.9074    1.4901 C   0  0  0  0  0  0  0  0  0  0  0  0
   -4.1498    0.8480    0.0172 C   0  0  0  0  0  0  0  0  0  0  0  0
   -3.5433   -0.3847   -0.6982 C   0  0  0  0  0  0  0  0  0  0  0  0
   -3.7049   -0.1410   -2.2201 C   0  0  0  0  0  0  0  0  0  0  0  0
   -4.3293   -1.6593   -0.3148 C   0  0  0  0  0  0  0  0  0  0  0  0
    0.3253   -2.8204   -2.6621 H   0  0  0  0  0  0  0  0  0  0  0  0
    1.8488   -2.2826   -1.9111 H   0  0  0  0  0  0  0  0  0  0  0  0
    0.9105   -3.6458   -1.1739 H   0  0  0  0  0  0  0  0  0  0  0  0
   -1.7459   -2.0568   -1.8793 H   0  0  0  0  0  0  0  0  0  0  0  0
    0.4156    0.4313    1.7981 H   0  0  0  0  0  0  0  0  0  0  0  0
    3.7679   -2.7222    0.7507 H   0  0  0  0  0  0  0  0  0  0  0  0
    1.9506   -3.3636    0.9915 H   0  0  0  0  0  0  0  0  0  0  0  0
    1.5920   -1.7397    2.6841 H   0  0  0  0  0  0  0  0  0  0  0  0
    3.4054   -1.0882    2.4514 H   0  0  0  0  0  0  0  0  0  0  0  0
    4.0304   -1.4934   -1.4325 H   0  0  0  0  0  0  0  0  0  0  0  0
    5.5087    0.2223   -2.3725 H   0  0  0  0  0  0  0  0  0  0  0  0
    3.8095    3.1039    0.3553 H   0  0  0  0  0  0  0  0  0  0  0  0
    7.1738    3.2478   -3.0550 H   0  0  0  0  0  0  0  0  0  0  0  0
   -0.9174    0.9941    3.4803 H   0  0  0  0  0  0  0  0  0  0  0  0
   -2.1242   -0.3411    3.4022 H   0  0  0  0  0  0  0  0  0  0  0  0
   -2.6296    1.3323    3.8390 H   0  0  0  0  0  0  0  0  0  0  0  0
   -1.8963    2.7232    0.3089 H   0  0  0  0  0  0  0  0  0  0  0  0
   -2.3764    3.2184    1.9760 H   0  0  0  0  0  0  0  0  0  0  0  0
   -0.7131    2.6286    1.6479 H   0  0  0  0  0  0  0  0  0  0  0  0
   -4.2912    1.7675    1.9616 H   0  0  0  0  0  0  0  0  0  0  0  0
   -4.1480   -0.0034    1.9995 H   0  0  0  0  0  0  0  0  0  0  0  0
   -5.2596    0.8306   -0.0619 H   0  0  0  0  0  0  0  0  0  0  0  0
   -3.8208    1.7862   -0.4793 H   0  0  0  0  0  0  0  0  0  0  0  0
   -3.0285    0.6743   -2.5570 H   0  0  0  0  0  0  0  0  0  0  0  0
   -4.7502    0.1524   -2.4600 H   0  0  0  0  0  0  0  0  0  0  0  0
   -3.4848   -1.0491   -2.8179 H   0  0  0  0  0  0  0  0  0  0  0  0
   -3.9869   -2.5300   -0.9140 H   0  0  0  0  0  0  0  0  0  0  0  0
   -4.1830   -1.9153    0.7551 H   0  0  0  0  0  0  0  0  0  0  0  0
   -5.4164   -1.5255   -0.5024 H   0  0  0  0  0  0  0  0  0  0  0  0
  1  2  1  0
  2  3  2  0
  3  4  1  0
  4  5  2  0
  5  6  1  0
  6  7  2  0
  7  8  1  0
  8  9  1  0
  9 10  1  0
  8 11  1  0
 11 12  2  0
 12 13  1  0
 13 14  2  0
 14 15  1  0
 15 16  2  0
 14 17  1  0
 17 18  1  0
 17 19  2  0
  5 20  1  0
 20 21  1  0
 20 22  1  0
 20 23  1  0
 23 24  1  0
 24 25  1  0
 25 26  1  0
 25 27  1  0
  7  2  1  0
 10  8  1  0
 16 11  1  0
 25  4  1  0
  1 28  1  0
  1 29  1  0
  1 30  1  0
  3 31  1  0
  6 32  1  0
  9 33  1  0
  9 34  1  0
 10 35  1  0
 10 36  1  0
 12 37  1  0
 13 38  1  0
 15 39  1  0
 18 40  1  0
 21 41  1  0
 21 42  1  0
 21 43  1  0
 22 44  1  0
 22 45  1  0
 22 46  1  0
 23 47  1  0
 23 48  1  0
 24 49  1  0
 24 50  1  0
 26 51  1  0
 26 52  1  0
 26 53  1  0
 27 54  1  0
 27 55  1  0
 27 56  1  0
M  END
$$$$
