
     RDKit          3D

 33 34  0  0  0  0  0  0  0  0999 V2000
    0.4083   -2.3987   -0.7766 C   0  0  0  0  0  0  0  0  0  0  0  0
    1.1248   -1.5851    0.3030 C   0  0  2  0  0  0  0  0  0  0  0  0
    0.1307   -1.0599    1.3583 C   0  0  0  0  0  0  0  0  0  0  0  0
   -0.7926   -0.0761    0.7918 N   0  0  0  0  0  0  0  0  0  0  0  0
   -0.5756    1.2505    0.6000 C   0  0  0  0  0  0  0  0  0  0  0  0
   -1.6270    1.8908    0.0173 N   0  0  0  0  0  0  0  0  0  0  0  0
   -2.5220    0.8985   -0.1512 C   0  0  0  0  0  0  0  0  0  0  0  0
   -2.0256   -0.2720    0.3096 C   0  0  0  0  0  0  0  0  0  0  0  0
   -2.7202   -1.4342    0.2548 N   0  0  0  0  0  0  0  0  0  0  0  0
   -3.9736   -1.4051   -0.2908 C   0  0  0  0  0  0  0  0  0  0  0  0
   -4.4996   -0.2297   -0.7650 N   0  0  0  0  0  0  0  0  0  0  0  0
   -3.7949    0.9402   -0.7083 C   0  0  0  0  0  0  0  0  0  0  0  0
   -4.3581    2.1528   -1.2088 N   0  0  0  0  0  0  0  0  0  0  0  0
    1.8002   -0.5057   -0.3216 O   0  0  0  0  0  0  0  0  0  0  0  0
    3.0346   -0.2514    0.3131 C   0  0  0  0  0  0  0  0  0  0  0  0
    3.8096    1.1928   -0.4642 P   0  0  0  0  0  5  0  0  0  0  0  0
    5.2990    1.4954    0.2794 O   0  0  0  0  0  0  0  0  0  0  0  0
    2.8040    2.5423   -0.2902 O   0  0  0  0  0  0  0  0  0  0  0  0
    4.0275    0.9160   -1.9343 O   0  0  0  0  0  0  0  0  0  0  0  0
   -0.2666   -1.7514   -1.3753 H   0  0  0  0  0  0  0  0  0  0  0  0
    1.1580   -2.8470   -1.4625 H   0  0  0  0  0  0  0  0  0  0  0  0
   -0.1826   -3.2202   -0.3182 H   0  0  0  0  0  0  0  0  0  0  0  0
    1.8210   -2.2949    0.8133 H   0  0  0  0  0  0  0  0  0  0  0  0
    0.6928   -0.5914    2.1942 H   0  0  0  0  0  0  0  0  0  0  0  0
   -0.4412   -1.9082    1.7942 H   0  0  0  0  0  0  0  0  0  0  0  0
    0.3407    1.7526    0.8803 H   0  0  0  0  0  0  0  0  0  0  0  0
   -4.5544   -2.3152   -0.3495 H   0  0  0  0  0  0  0  0  0  0  0  0
   -3.8250    3.0499   -1.1692 H   0  0  0  0  0  0  0  0  0  0  0  0
   -5.3165    2.1542   -1.6228 H   0  0  0  0  0  0  0  0  0  0  0  0
    3.7236   -1.1163    0.1917 H   0  0  0  0  0  0  0  0  0  0  0  0
    2.8934   -0.0271    1.3931 H   0  0  0  0  0  0  0  0  0  0  0  0
    5.6220    2.3352   -0.1348 H   0  0  0  0  0  0  0  0  0  0  0  0
    2.7855    2.7184    0.6842 H   0  0  0  0  0  0  0  0  0  0  0  0
  1  2  1  0
  2  3  1  0
  3  4  1  0
  4  5  1  0
  5  6  2  0
  6  7  1  0
  7  8  2  0
  8  9  1  0
  9 10  2  0
 10 11  1  0
 11 12  2  0
 12 13  1  0
  2 14  1  0
 14 15  1  0
 15 16  1  0
 16 17  1  0
 16 18  1  0
 16 19  2  0
  8  4  1  0
 12  7  1  0
  1 20  1  0
  1 21  1  0
  1 22  1  0
  2 23  1  1
  3 24  1  0
  3 25  1  0
  5 26  1  0
 10 27  1  0
 13 28  1  0
 13 29  1  0
 15 30  1  0
 15 31  1  0
 17 32  1  0
 18 33  1  0
M  END
$$$$
