
     RDKit          3D

 13 12  0  0  0  0  0  0  0  0999 V2000
   -1.1081   -0.9409   -0.0682 C   0  0  0  0  0  0  0  0  0  0  0  0
   -0.2827    0.2950    0.2955 C   0  0  2  0  0  0  0  0  0  0  0  0
   -0.3838    1.2976   -0.7649 N   0  0  0  0  0  0  0  0  0  0  0  0
    1.1539   -0.0945    0.4945 C   0  0  0  0  0  0  0  0  0  0  0  0
    1.9453   -0.4245   -0.6022 O   0  0  0  0  0  0  0  0  0  0  0  0
    1.6374   -0.1495    1.6569 O   0  0  0  0  0  0  0  0  0  0  0  0
   -2.1790   -0.6655   -0.1731 H   0  0  0  0  0  0  0  0  0  0  0  0
   -0.7562   -1.3774   -1.0279 H   0  0  0  0  0  0  0  0  0  0  0  0
   -1.0233   -1.7080    0.7314 H   0  0  0  0  0  0  0  0  0  0  0  0
   -0.6835    0.7219    1.2436 H   0  0  0  0  0  0  0  0  0  0  0  0
    0.1502    2.1464   -0.4656 H   0  0  0  0  0  0  0  0  0  0  0  0
   -1.3830    1.5988   -0.8392 H   0  0  0  0  0  0  0  0  0  0  0  0
    2.9127   -0.6994   -0.4808 H   0  0  0  0  0  0  0  0  0  0  0  0
  1  2  1  0
  2  3  1  0
  2  4  1  0
  4  5  1  0
  4  6  2  0
  1  7  1  0
  1  8  1  0
  1  9  1  0
  2 10  1  1
  3 11  1  0
  3 12  1  0
  5 13  1  0
M  END
$$$$
