
     RDKit          3D

 57 61  0  0  0  0  0  0  0  0999 V2000
    5.6499    3.9099   -1.5182 C   0  0  0  0  0  0  0  0  0  0  0  0
    5.6614    3.1002   -0.3466 O   0  0  0  0  0  0  0  0  0  0  0  0
    4.9980    1.8685   -0.2144 C   0  0  0  0  0  0  0  0  0  0  0  0
    4.2462    1.3279   -1.2782 C   0  0  0  0  0  0  0  0  0  0  0  0
    3.5735    0.1082   -1.1397 C   0  0  0  0  0  0  0  0  0  0  0  0
    2.8273   -0.4175   -2.2507 N   0  0  0  0  0  0  0  0  0  0  0  0
    1.5918   -1.1344   -2.1178 C   0  0  0  0  0  0  0  0  0  0  0  0
    1.0597   -1.7613   -3.1982 N   0  0  0  0  0  0  0  0  0  0  0  0
   -0.1182   -2.4294   -3.1107 C   0  0  0  0  0  0  0  0  0  0  0  0
   -0.8115   -2.4777   -1.8944 C   0  0  0  0  0  0  0  0  0  0  0  0
   -2.1223   -3.1981   -1.7876 C   0  0  0  0  0  0  0  0  0  0  0  0
   -3.1730   -2.2291   -1.5115 N   0  0  0  0  0  0  0  0  0  0  0  0
   -3.2768   -1.5339   -0.4153 C   0  0  0  0  0  0  0  0  0  0  0  0
   -2.3252   -1.7112    0.7242 C   0  0  0  0  0  0  0  0  0  0  0  0
   -0.9162   -1.8104    0.5476 C   0  0  0  0  0  0  0  0  0  0  0  0
   -0.0892   -1.8911    1.6842 C   0  0  0  0  0  0  0  0  0  0  0  0
   -0.6334   -1.8947    2.9678 C   0  0  0  0  0  0  0  0  0  0  0  0
   -2.0131   -1.8143    3.1419 C   0  0  0  0  0  0  0  0  0  0  0  0
   -2.6950   -1.8185    4.7581 Cl  0  0  0  0  0  0  0  0  0  0  0  0
   -2.8520   -1.7227    2.0305 C   0  0  0  0  0  0  0  0  0  0  0  0
   -0.2652   -1.8003   -0.7892 C   0  0  0  0  0  0  0  0  0  0  0  0
    0.9232   -1.1537   -0.9344 N   0  0  0  0  0  0  0  0  0  0  0  0
   -4.4050   -0.5751   -0.2975 C   0  0  0  0  0  0  0  0  0  0  0  0
   -5.7008   -0.9605   -0.6955 C   0  0  0  0  0  0  0  0  0  0  0  0
   -5.9383   -2.2100   -1.1703 F   0  0  0  0  0  0  0  0  0  0  0  0
   -6.7694   -0.0694   -0.5775 C   0  0  0  0  0  0  0  0  0  0  0  0
   -6.5619    1.2111   -0.0676 C   0  0  0  0  0  0  0  0  0  0  0  0
   -5.2833    1.6118    0.3224 C   0  0  0  0  0  0  0  0  0  0  0  0
   -4.1913    0.7291    0.2055 C   0  0  0  0  0  0  0  0  0  0  0  0
   -2.8890    1.1190    0.5619 O   0  0  0  0  0  0  0  0  0  0  0  0
   -2.5423    2.3866    1.1083 C   0  0  0  0  0  0  0  0  0  0  0  0
    3.6873   -0.6032    0.0617 C   0  0  0  0  0  0  0  0  0  0  0  0
    4.4266   -0.0822    1.1230 C   0  0  0  0  0  0  0  0  0  0  0  0
    5.0852    1.1563    1.0064 C   0  0  0  0  0  0  0  0  0  0  0  0
    5.8599    1.6776    2.1646 C   0  0  0  0  0  0  0  0  0  0  0  0
    6.5235    2.8994    2.0930 O   0  0  0  0  0  0  0  0  0  0  0  0
    5.9238    1.0134    3.2347 O   0  0  0  0  0  0  0  0  0  0  0  0
    4.6107    4.2182   -1.7595 H   0  0  0  0  0  0  0  0  0  0  0  0
    6.0940    3.3545   -2.3711 H   0  0  0  0  0  0  0  0  0  0  0  0
    6.2559    4.8205   -1.3345 H   0  0  0  0  0  0  0  0  0  0  0  0
    4.1660    1.8557   -2.2187 H   0  0  0  0  0  0  0  0  0  0  0  0
    3.1514   -0.1870   -3.2174 H   0  0  0  0  0  0  0  0  0  0  0  0
   -0.5126   -2.9206   -3.9909 H   0  0  0  0  0  0  0  0  0  0  0  0
   -2.3654   -3.7259   -2.7342 H   0  0  0  0  0  0  0  0  0  0  0  0
   -2.0800   -3.9614   -0.9801 H   0  0  0  0  0  0  0  0  0  0  0  0
    0.9865   -1.9637    1.5789 H   0  0  0  0  0  0  0  0  0  0  0  0
    0.0207   -1.9625    3.8278 H   0  0  0  0  0  0  0  0  0  0  0  0
   -3.9219   -1.6561    2.1878 H   0  0  0  0  0  0  0  0  0  0  0  0
   -7.7639   -0.3744   -0.8771 H   0  0  0  0  0  0  0  0  0  0  0  0
   -7.3943    1.8970    0.0236 H   0  0  0  0  0  0  0  0  0  0  0  0
   -5.1532    2.6140    0.7069 H   0  0  0  0  0  0  0  0  0  0  0  0
   -1.4510    2.4084    1.3057 H   0  0  0  0  0  0  0  0  0  0  0  0
   -3.0800    2.5489    2.0663 H   0  0  0  0  0  0  0  0  0  0  0  0
   -2.7895    3.1940    0.3872 H   0  0  0  0  0  0  0  0  0  0  0  0
    3.2242   -1.5745    0.1747 H   0  0  0  0  0  0  0  0  0  0  0  0
    4.4876   -0.6586    2.0378 H   0  0  0  0  0  0  0  0  0  0  0  0
    7.0502    3.2535    2.8826 H   0  0  0  0  0  0  0  0  0  0  0  0
  1  2  1  0
  2  3  1  0
  3  4  2  0
  4  5  1  0
  5  6  1  0
  6  7  1  0
  7  8  2  0
  8  9  1  0
  9 10  2  0
 10 11  1  0
 11 12  1  0
 12 13  2  0
 13 14  1  0
 14 15  2  0
 15 16  1  0
 16 17  2  0
 17 18  1  0
 18 19  1  0
 18 20  2  0
 15 21  1  0
 21 22  2  0
 13 23  1  0
 23 24  2  0
 24 25  1  0
 24 26  1  0
 26 27  2  0
 27 28  1  0
 28 29  2  0
 29 30  1  0
 30 31  1  0
  5 32  2  0
 32 33  1  0
 33 34  2  0
 34 35  1  0
 35 36  1  0
 35 37  2  0
 34  3  1  0
 22  7  1  0
 29 23  1  0
 21 10  1  0
 20 14  1  0
  1 38  1  0
  1 39  1  0
  1 40  1  0
  4 41  1  0
  6 42  1  0
  9 43  1  0
 11 44  1  0
 11 45  1  0
 16 46  1  0
 17 47  1  0
 20 48  1  0
 26 49  1  0
 27 50  1  0
 28 51  1  0
 31 52  1  0
 31 53  1  0
 31 54  1  0
 32 55  1  0
 33 56  1  0
 36 57  1  0
M  END
$$$$
