
     RDKit          3D

 11 11  0  0  0  0  0  0  0  0999 V2000
    2.2804   -0.7554    0.2226 O   0  0  0  0  0  0  0  0  0  0  0  0
    1.0577   -0.2117    0.8117 B   0  0  0  0  0  0  0  0  0  0  0  0
   -0.0959   -1.0791    0.9566 O   0  0  0  0  0  0  0  0  0  0  0  0
   -0.9814   -0.4748    0.0558 C   0  0  0  0  0  0  0  0  0  0  0  0
   -0.4808    0.9542   -0.2238 C   0  0  0  0  0  0  0  0  0  0  0  0
    0.6886    1.1601    0.5185 O   0  0  0  0  0  0  0  0  0  0  0  0
    2.0722   -0.8706   -0.7392 H   0  0  0  0  0  0  0  0  0  0  0  0
   -1.9974   -0.4461    0.5054 H   0  0  0  0  0  0  0  0  0  0  0  0
   -1.0271   -1.0681   -0.8853 H   0  0  0  0  0  0  0  0  0  0  0  0
   -1.2462    1.6982    0.0859 H   0  0  0  0  0  0  0  0  0  0  0  0
   -0.2699    1.0933   -1.3082 H   0  0  0  0  0  0  0  0  0  0  0  0
  1  2  1  0
  2  3  1  0
  3  4  1  0
  4  5  1  0
  5  6  1  0
  6  2  1  0
  1  7  1  0
  4  8  1  0
  4  9  1  0
  5 10  1  0
  5 11  1  0
M  END
$$$$
