
     RDKit          3D

 50 52  0  0  0  0  0  0  0  0999 V2000
   -1.3625   -0.0552    1.6984 O   0  0  0  0  0  0  0  0  0  0  0  0
   -1.2541   -0.2987    0.3117 C   0  0  0  0  0  0  0  0  0  0  0  0
    0.2571   -0.4517   -0.0840 C   0  0  0  0  0  0  0  0  0  0  0  0
    1.2283    0.5802    0.5306 C   0  0  0  0  0  0  0  0  0  0  0  0
    2.6194    0.0736    0.4964 N   0  0  0  0  0  0  0  0  0  0  0  0
    3.2060    0.2255   -0.8547 C   0  0  0  0  0  0  0  0  0  0  0  0
    4.6137   -0.3780   -0.9000 C   0  0  0  0  0  0  0  0  0  0  0  0
    5.5135    0.2815    0.1466 C   0  0  0  0  0  0  0  0  0  0  0  0
    4.8655    0.2108    1.5304 C   0  0  0  0  0  0  0  0  0  0  0  0
    3.4469    0.7898    1.4913 C   0  0  0  0  0  0  0  0  0  0  0  0
   -1.9383    0.8837   -0.4589 C   0  0  0  0  0  0  0  0  0  0  0  0
   -1.4524    2.2902   -0.0700 C   0  0  0  0  0  0  0  0  0  0  0  0
   -2.6725    3.2107   -0.0900 C   0  0  0  0  0  0  0  0  0  0  0  0
   -3.8509    2.3672   -0.5469 C   0  0  0  0  0  0  0  0  0  0  0  0
   -3.4566    0.9335   -0.2585 C   0  0  0  0  0  0  0  0  0  0  0  0
   -1.9880   -1.6053   -0.0524 C   0  0  0  0  0  0  0  0  0  0  0  0
   -1.9116   -2.1261   -1.3635 C   0  0  0  0  0  0  0  0  0  0  0  0
   -2.6002   -3.2908   -1.7130 C   0  0  0  0  0  0  0  0  0  0  0  0
   -3.3890   -3.9486   -0.7695 C   0  0  0  0  0  0  0  0  0  0  0  0
   -3.4989   -3.4378    0.5236 C   0  0  0  0  0  0  0  0  0  0  0  0
   -2.8132   -2.2733    0.8810 C   0  0  0  0  0  0  0  0  0  0  0  0
   -0.8599   -0.7679    2.1752 H   0  0  0  0  0  0  0  0  0  0  0  0
    0.3570   -0.4096   -1.1881 H   0  0  0  0  0  0  0  0  0  0  0  0
    0.5993   -1.4618    0.2361 H   0  0  0  0  0  0  0  0  0  0  0  0
    1.1599    1.5481   -0.0086 H   0  0  0  0  0  0  0  0  0  0  0  0
    0.9259    0.7705    1.5824 H   0  0  0  0  0  0  0  0  0  0  0  0
    2.5916   -0.3130   -1.6060 H   0  0  0  0  0  0  0  0  0  0  0  0
    3.2502    1.2987   -1.1517 H   0  0  0  0  0  0  0  0  0  0  0  0
    5.0506   -0.2277   -1.9107 H   0  0  0  0  0  0  0  0  0  0  0  0
    4.5544   -1.4716   -0.7061 H   0  0  0  0  0  0  0  0  0  0  0  0
    5.6896    1.3448   -0.1292 H   0  0  0  0  0  0  0  0  0  0  0  0
    6.4966   -0.2359    0.1701 H   0  0  0  0  0  0  0  0  0  0  0  0
    5.4811    0.7840    2.2567 H   0  0  0  0  0  0  0  0  0  0  0  0
    4.8241   -0.8477    1.8693 H   0  0  0  0  0  0  0  0  0  0  0  0
    3.4890    1.8793    1.2607 H   0  0  0  0  0  0  0  0  0  0  0  0
    3.0104    0.6691    2.5075 H   0  0  0  0  0  0  0  0  0  0  0  0
   -1.7554    0.7564   -1.5507 H   0  0  0  0  0  0  0  0  0  0  0  0
   -0.6992    2.6521   -0.8032 H   0  0  0  0  0  0  0  0  0  0  0  0
   -1.0037    2.3098    0.9459 H   0  0  0  0  0  0  0  0  0  0  0  0
   -2.5161    4.0707   -0.7773 H   0  0  0  0  0  0  0  0  0  0  0  0
   -2.8676    3.6018    0.9332 H   0  0  0  0  0  0  0  0  0  0  0  0
   -4.7845    2.6457   -0.0116 H   0  0  0  0  0  0  0  0  0  0  0  0
   -4.0027    2.4975   -1.6415 H   0  0  0  0  0  0  0  0  0  0  0  0
   -3.7230    0.6893    0.7939 H   0  0  0  0  0  0  0  0  0  0  0  0
   -3.9833    0.2322   -0.9421 H   0  0  0  0  0  0  0  0  0  0  0  0
   -1.3287   -1.6280   -2.1259 H   0  0  0  0  0  0  0  0  0  0  0  0
   -2.5272   -3.6798   -2.7204 H   0  0  0  0  0  0  0  0  0  0  0  0
   -3.9234   -4.8491   -1.0435 H   0  0  0  0  0  0  0  0  0  0  0  0
   -4.1231   -3.9414    1.2506 H   0  0  0  0  0  0  0  0  0  0  0  0
   -2.9440   -1.8975    1.8866 H   0  0  0  0  0  0  0  0  0  0  0  0
  1  2  1  0
  2  3  1  0
  3  4  1  0
  4  5  1  0
  5  6  1  0
  6  7  1  0
  7  8  1  0
  8  9  1  0
  9 10  1  0
  2 11  1  0
 11 12  1  0
 12 13  1  0
 13 14  1  0
 14 15  1  0
  2 16  1  0
 16 17  2  0
 17 18  1  0
 18 19  2  0
 19 20  1  0
 20 21  2  0
 10  5  1  0
 15 11  1  0
 21 16  1  0
  1 22  1  0
  3 23  1  0
  3 24  1  0
  4 25  1  0
  4 26  1  0
  6 27  1  0
  6 28  1  0
  7 29  1  0
  7 30  1  0
  8 31  1  0
  8 32  1  0
  9 33  1  0
  9 34  1  0
 10 35  1  0
 10 36  1  0
 11 37  1  0
 12 38  1  0
 12 39  1  0
 13 40  1  0
 13 41  1  0
 14 42  1  0
 14 43  1  0
 15 44  1  0
 15 45  1  0
 17 46  1  0
 18 47  1  0
 19 48  1  0
 20 49  1  0
 21 50  1  0
M  END
$$$$
