
     RDKit          3D

 34 36  0  0  0  0  0  0  0  0999 V2000
    0.6349   -1.8505    0.2309 C   0  0  1  0  0  0  0  0  0  0  0  0
    0.1619   -1.8645    1.5516 O   0  0  0  0  0  0  0  0  0  0  0  0
   -0.5397   -1.9422   -0.7895 C   0  0  0  0  0  0  0  0  0  0  0  0
   -1.4203   -0.7518   -0.8536 N   0  0  0  0  0  0  0  0  0  0  0  0
   -2.1467   -0.5075    0.4056 C   0  0  0  0  0  0  0  0  0  0  0  0
   -3.4257    0.2198    0.1289 C   0  0  0  0  0  0  0  0  0  0  0  0
   -3.8729    1.3606    0.7829 C   0  0  0  0  0  0  0  0  0  0  0  0
   -5.1283    1.7927    0.3389 C   0  0  0  0  0  0  0  0  0  0  0  0
   -5.6757    0.9898   -0.6538 C   0  0  0  0  0  0  0  0  0  0  0  0
   -4.5973   -0.2595   -0.9783 S   0  0  0  0  0  0  0  0  0  0  0  0
   -0.5015    0.6479   -1.3531 S   0  0  0  0  0  6  0  0  0  0  0  0
   -0.3583    0.6430   -2.8486 O   0  0  0  0  0  0  0  0  0  0  0  0
   -1.1684    1.9214   -0.9125 O   0  0  0  0  0  0  0  0  0  0  0  0
    1.0667    0.5101   -0.6160 C   0  0  0  0  0  0  0  0  0  0  0  0
    1.4990   -0.6335    0.0296 C   0  0  0  0  0  0  0  0  0  0  0  0
    2.8001   -0.5080    0.5346 C   0  0  0  0  0  0  0  0  0  0  0  0
    3.3676    0.7298    0.2562 C   0  0  0  0  0  0  0  0  0  0  0  0
    2.2734    1.6783   -0.6052 S   0  0  0  0  0  0  0  0  0  0  0  0
    4.9855    1.2267    0.7134 S   0  0  0  0  0  6  0  0  0  0  0  0
    6.1454    0.4403   -0.2984 N   0  0  0  0  0  0  0  0  0  0  0  0
    5.1176    2.7157    0.5589 O   0  0  0  0  0  0  0  0  0  0  0  0
    5.2345    0.8611    2.1494 O   0  0  0  0  0  0  0  0  0  0  0  0
    1.2834   -2.7433    0.0709 H   0  0  0  0  0  0  0  0  0  0  0  0
   -0.1582   -2.7868    1.7325 H   0  0  0  0  0  0  0  0  0  0  0  0
   -0.1128   -2.1221   -1.8008 H   0  0  0  0  0  0  0  0  0  0  0  0
   -1.1514   -2.8425   -0.5623 H   0  0  0  0  0  0  0  0  0  0  0  0
   -1.5218    0.0714    1.1218 H   0  0  0  0  0  0  0  0  0  0  0  0
   -2.4233   -1.4677    0.8935 H   0  0  0  0  0  0  0  0  0  0  0  0
   -3.3115    1.8665    1.5576 H   0  0  0  0  0  0  0  0  0  0  0  0
   -5.6278    2.6665    0.7354 H   0  0  0  0  0  0  0  0  0  0  0  0
   -6.6347    1.1409   -1.1304 H   0  0  0  0  0  0  0  0  0  0  0  0
    3.3094   -1.2896    1.0835 H   0  0  0  0  0  0  0  0  0  0  0  0
    5.8977    0.6753   -1.2857 H   0  0  0  0  0  0  0  0  0  0  0  0
    5.9990   -0.5882   -0.1881 H   0  0  0  0  0  0  0  0  0  0  0  0
  1  2  1  0
  1  3  1  0
  3  4  1  0
  4  5  1  0
  5  6  1  0
  6  7  2  0
  7  8  1  0
  8  9  2  0
  9 10  1  0
  4 11  1  0
 11 12  2  0
 11 13  2  0
 11 14  1  0
 14 15  2  0
 15 16  1  0
 16 17  2  0
 17 18  1  0
 17 19  1  0
 19 20  1  0
 19 21  2  0
 19 22  2  0
 15  1  1  0
 10  6  1  0
 18 14  1  0
  1 23  1  1
  2 24  1  0
  3 25  1  0
  3 26  1  0
  5 27  1  0
  5 28  1  0
  7 29  1  0
  8 30  1  0
  9 31  1  0
 16 32  1  0
 20 33  1  0
 20 34  1  0
M  END
$$$$
