
     RDKit          3D

 46 49  0  0  0  0  0  0  0  0999 V2000
   -0.3794    2.3105    0.0936 C   0  0  2  0  0  0  0  0  0  0  0  0
    0.2184    3.3769   -0.8307 C   0  0  0  0  0  0  0  0  0  0  0  0
    1.4181    2.7294   -1.5203 C   0  0  0  0  0  0  0  0  0  0  0  0
    2.4864    3.6108   -1.5559 F   0  0  0  0  0  0  0  0  0  0  0  0
    1.0823    2.3726   -2.8167 F   0  0  0  0  0  0  0  0  0  0  0  0
    1.7757    1.4840   -0.7081 C   0  0  0  0  0  0  0  0  0  0  0  0
    0.8466    1.4826    0.5120 C   0  0  2  0  0  0  0  0  0  0  0  0
    0.4532    0.0748    1.0004 C   0  0  1  0  0  0  0  0  0  0  0  0
   -0.3319   -0.5821    0.0103 O   0  0  0  0  0  0  0  0  0  0  0  0
   -1.3720    0.0755   -0.6523 C   0  0  0  0  0  0  0  0  0  0  0  0
   -1.4567    1.4845   -0.6061 C   0  0  0  0  0  0  0  0  0  0  0  0
   -2.5832    2.1174   -1.1591 C   0  0  0  0  0  0  0  0  0  0  0  0
   -3.5622    1.3758   -1.8239 C   0  0  0  0  0  0  0  0  0  0  0  0
   -4.6612    2.0300   -2.3764 O   0  0  0  0  0  0  0  0  0  0  0  0
   -3.4333   -0.0133   -1.9298 C   0  0  0  0  0  0  0  0  0  0  0  0
   -2.3391   -0.6722   -1.3510 C   0  0  0  0  0  0  0  0  0  0  0  0
   -2.2567   -2.1771   -1.4292 C   0  0  0  0  0  0  0  0  0  0  0  0
   -3.2114   -2.7748   -0.5733 O   0  0  0  0  0  0  0  0  0  0  0  0
   -2.6820   -2.9191    0.7268 C   0  0  0  0  0  0  0  0  0  0  0  0
    1.6617   -0.7541    1.3767 C   0  0  0  0  0  0  0  0  0  0  0  0
    2.2558   -0.5795    2.6381 C   0  0  0  0  0  0  0  0  0  0  0  0
    3.3925   -1.3114    2.9935 C   0  0  0  0  0  0  0  0  0  0  0  0
    3.9554   -2.2207    2.0888 C   0  0  0  0  0  0  0  0  0  0  0  0
    5.0881   -2.9555    2.4317 O   0  0  0  0  0  0  0  0  0  0  0  0
    3.3770   -2.3918    0.8276 C   0  0  0  0  0  0  0  0  0  0  0  0
    2.2402   -1.6615    0.4691 C   0  0  0  0  0  0  0  0  0  0  0  0
   -0.8344    2.7904    0.9885 H   0  0  0  0  0  0  0  0  0  0  0  0
    0.5684    4.2290   -0.2061 H   0  0  0  0  0  0  0  0  0  0  0  0
   -0.5019    3.7822   -1.5722 H   0  0  0  0  0  0  0  0  0  0  0  0
    1.6147    0.5778   -1.3319 H   0  0  0  0  0  0  0  0  0  0  0  0
    2.8399    1.5002   -0.3855 H   0  0  0  0  0  0  0  0  0  0  0  0
    1.3604    2.0188    1.3432 H   0  0  0  0  0  0  0  0  0  0  0  0
   -0.1838    0.1927    1.9061 H   0  0  0  0  0  0  0  0  0  0  0  0
   -2.7035    3.1903   -1.0760 H   0  0  0  0  0  0  0  0  0  0  0  0
   -5.3896    1.5225   -2.8650 H   0  0  0  0  0  0  0  0  0  0  0  0
   -4.1953   -0.5829   -2.4482 H   0  0  0  0  0  0  0  0  0  0  0  0
   -1.2206   -2.5497   -1.2527 H   0  0  0  0  0  0  0  0  0  0  0  0
   -2.4949   -2.4839   -2.4698 H   0  0  0  0  0  0  0  0  0  0  0  0
   -3.4528   -3.3893    1.3710 H   0  0  0  0  0  0  0  0  0  0  0  0
   -1.7919   -3.5866    0.7292 H   0  0  0  0  0  0  0  0  0  0  0  0
   -2.4317   -1.9323    1.1734 H   0  0  0  0  0  0  0  0  0  0  0  0
    1.8388    0.1261    3.3461 H   0  0  0  0  0  0  0  0  0  0  0  0
    3.8367   -1.1685    3.9703 H   0  0  0  0  0  0  0  0  0  0  0  0
    5.5310   -2.8535    3.3374 H   0  0  0  0  0  0  0  0  0  0  0  0
    3.8112   -3.0895    0.1228 H   0  0  0  0  0  0  0  0  0  0  0  0
    1.8168   -1.8054   -0.5167 H   0  0  0  0  0  0  0  0  0  0  0  0
  1  2  1  0
  2  3  1  0
  3  4  1  0
  3  5  1  0
  3  6  1  0
  6  7  1  0
  7  8  1  0
  8  9  1  0
  9 10  1  0
 10 11  2  0
 11 12  1  0
 12 13  2  0
 13 14  1  0
 13 15  1  0
 15 16  2  0
 16 17  1  0
 17 18  1  0
 18 19  1  0
  8 20  1  0
 20 21  2  0
 21 22  1  0
 22 23  2  0
 23 24  1  0
 23 25  1  0
 25 26  2  0
  7  1  1  0
 16 10  1  0
 26 20  1  0
 11  1  1  0
  1 27  1  1
  2 28  1  0
  2 29  1  0
  6 30  1  0
  6 31  1  0
  7 32  1  1
  8 33  1  1
 12 34  1  0
 14 35  1  0
 15 36  1  0
 17 37  1  0
 17 38  1  0
 19 39  1  0
 19 40  1  0
 19 41  1  0
 21 42  1  0
 22 43  1  0
 24 44  1  0
 25 45  1  0
 26 46  1  0
M  END
$$$$
