
     RDKit          3D

 66 67  0  0  0  0  0  0  0  0999 V2000
   -1.0042   -0.3757    1.2315 C   0  0  1  0  0  0  0  0  0  0  0  0
   -2.0243    0.7719    1.3682 C   0  0  2  0  0  0  0  0  0  0  0  0
   -2.7520    0.6256    2.7165 C   0  0  0  0  0  0  0  0  0  0  0  0
   -3.4794   -0.7325    2.8314 C   0  0  2  0  0  0  0  0  0  0  0  0
   -3.7790   -1.0195    4.1728 O   0  0  0  0  0  0  0  0  0  0  0  0
   -2.7409   -1.8921    2.1948 C   0  0  0  0  0  0  0  0  0  0  0  0
   -1.7063   -1.7232    1.3560 C   0  0  0  0  0  0  0  0  0  0  0  0
   -1.2648   -2.8494    0.5116 C   0  0  0  0  0  0  0  0  0  0  0  0
   -0.7414   -2.6027   -0.6890 C   0  0  0  0  0  0  0  0  0  0  0  0
   -0.6631   -1.1814   -1.1890 C   0  0  2  0  0  0  0  0  0  0  0  0
    0.1115   -1.0945   -2.5094 C   0  0  0  0  0  0  0  0  0  0  0  0
   -0.1163   -0.2473   -0.0661 C   0  0  2  0  0  0  0  0  0  0  0  0
    1.3961   -0.5132    0.2410 C   0  0  0  0  0  0  0  0  0  0  0  0
    2.3237    0.4994   -0.4565 C   0  0  0  0  0  0  0  0  0  0  0  0
    3.8129    0.1886   -0.1971 C   0  0  1  0  0  0  0  0  0  0  0  0
    4.1392   -1.0889   -0.6870 O   0  0  0  0  0  0  0  0  0  0  0  0
    4.7179    1.2730   -0.8319 C   0  0  0  0  0  0  0  0  0  0  0  0
    6.1824    1.2588   -0.3356 C   0  0  1  0  0  0  0  0  0  0  0  0
    6.2315    1.3766    1.0638 O   0  0  0  0  0  0  0  0  0  0  0  0
    6.9442   -0.0024   -0.7745 C   0  0  0  0  0  0  0  0  0  0  0  0
    8.4146    0.1541   -0.5383 C   0  0  0  0  0  0  0  0  0  0  0  0
    8.9650   -0.2238    0.6824 O   0  0  0  0  0  0  0  0  0  0  0  0
    9.1467    0.6627   -1.4290 O   0  0  0  0  0  0  0  0  0  0  0  0
   -2.9555    0.7322    0.2856 O   0  0  0  0  0  0  0  0  0  0  0  0
   -3.7955    1.7996   -0.0508 C   0  0  0  0  0  0  0  0  0  0  0  0
   -3.6950    2.9088    0.5415 O   0  0  0  0  0  0  0  0  0  0  0  0
   -4.8323    1.6184   -1.1246 C   0  0  1  0  0  0  0  0  0  0  0  0
   -4.1492    1.2832   -2.4542 C   0  0  0  0  0  0  0  0  0  0  0  0
   -5.8380    0.5156   -0.7379 C   0  0  0  0  0  0  0  0  0  0  0  0
   -6.6930    0.9099    0.4670 C   0  0  0  0  0  0  0  0  0  0  0  0
   -0.3523   -0.2936    2.1275 H   0  0  0  0  0  0  0  0  0  0  0  0
   -1.4762    1.7411    1.3587 H   0  0  0  0  0  0  0  0  0  0  0  0
   -2.0084    0.7272    3.5377 H   0  0  0  0  0  0  0  0  0  0  0  0
   -3.4873    1.4492    2.8422 H   0  0  0  0  0  0  0  0  0  0  0  0
   -4.4425   -0.6393    2.2857 H   0  0  0  0  0  0  0  0  0  0  0  0
   -2.9176   -1.1726    4.6435 H   0  0  0  0  0  0  0  0  0  0  0  0
   -3.2048   -2.8689    2.2728 H   0  0  0  0  0  0  0  0  0  0  0  0
   -1.4081   -3.8727    0.8370 H   0  0  0  0  0  0  0  0  0  0  0  0
   -0.4066   -3.4275   -1.3068 H   0  0  0  0  0  0  0  0  0  0  0  0
   -1.7023   -0.8584   -1.4152 H   0  0  0  0  0  0  0  0  0  0  0  0
    1.1360   -1.5091   -2.4053 H   0  0  0  0  0  0  0  0  0  0  0  0
   -0.4180   -1.6767   -3.2937 H   0  0  0  0  0  0  0  0  0  0  0  0
    0.1694   -0.0389   -2.8491 H   0  0  0  0  0  0  0  0  0  0  0  0
   -0.2100    0.7976   -0.4401 H   0  0  0  0  0  0  0  0  0  0  0  0
    1.6121   -0.4415    1.3274 H   0  0  0  0  0  0  0  0  0  0  0  0
    1.6756   -1.5478   -0.0505 H   0  0  0  0  0  0  0  0  0  0  0  0
    2.0909    1.5141   -0.0645 H   0  0  0  0  0  0  0  0  0  0  0  0
    2.1379    0.5116   -1.5498 H   0  0  0  0  0  0  0  0  0  0  0  0
    3.9725    0.1902    0.9028 H   0  0  0  0  0  0  0  0  0  0  0  0
    3.9750   -1.0875   -1.6664 H   0  0  0  0  0  0  0  0  0  0  0  0
    4.6988    1.1807   -1.9401 H   0  0  0  0  0  0  0  0  0  0  0  0
    4.2996    2.2756   -0.5921 H   0  0  0  0  0  0  0  0  0  0  0  0
    6.6915    2.1384   -0.7975 H   0  0  0  0  0  0  0  0  0  0  0  0
    5.9887    2.3143    1.2820 H   0  0  0  0  0  0  0  0  0  0  0  0
    6.5899   -0.8848   -0.2013 H   0  0  0  0  0  0  0  0  0  0  0  0
    6.7701   -0.1967   -1.8555 H   0  0  0  0  0  0  0  0  0  0  0  0
    9.9551   -0.1094    0.8634 H   0  0  0  0  0  0  0  0  0  0  0  0
   -5.3861    2.5742   -1.2644 H   0  0  0  0  0  0  0  0  0  0  0  0
   -3.6285    0.3039   -2.3953 H   0  0  0  0  0  0  0  0  0  0  0  0
   -3.4085    2.0697   -2.7144 H   0  0  0  0  0  0  0  0  0  0  0  0
   -4.9031    1.2356   -3.2687 H   0  0  0  0  0  0  0  0  0  0  0  0
   -6.5210    0.3224   -1.5940 H   0  0  0  0  0  0  0  0  0  0  0  0
   -5.3021   -0.4329   -0.5121 H   0  0  0  0  0  0  0  0  0  0  0  0
   -6.0587    1.0714    1.3636 H   0  0  0  0  0  0  0  0  0  0  0  0
   -7.2608    1.8393    0.2488 H   0  0  0  0  0  0  0  0  0  0  0  0
   -7.4158    0.0972    0.6903 H   0  0  0  0  0  0  0  0  0  0  0  0
  1  2  1  0
  2  3  1  0
  3  4  1  0
  4  5  1  0
  4  6  1  0
  6  7  2  0
  7  8  1  0
  8  9  2  0
  9 10  1  0
 10 11  1  0
 10 12  1  0
 12 13  1  0
 13 14  1  0
 14 15  1  0
 15 16  1  0
 15 17  1  0
 17 18  1  0
 18 19  1  0
 18 20  1  0
 20 21  1  0
 21 22  1  0
 21 23  2  0
  2 24  1  0
 24 25  1  0
 25 26  2  0
 25 27  1  0
 27 28  1  0
 27 29  1  0
 29 30  1  0
  7  1  1  0
 12  1  1  0
  1 31  1  1
  2 32  1  1
  3 33  1  0
  3 34  1  0
  4 35  1  6
  5 36  1  0
  6 37  1  0
  8 38  1  0
  9 39  1  0
 10 40  1  6
 11 41  1  0
 11 42  1  0
 11 43  1  0
 12 44  1  6
 13 45  1  0
 13 46  1  0
 14 47  1  0
 14 48  1  0
 15 49  1  1
 16 50  1  0
 17 51  1  0
 17 52  1  0
 18 53  1  6
 19 54  1  0
 20 55  1  0
 20 56  1  0
 22 57  1  0
 27 58  1  6
 28 59  1  0
 28 60  1  0
 28 61  1  0
 29 62  1  0
 29 63  1  0
 30 64  1  0
 30 65  1  0
 30 66  1  0
M  END
$$$$
