
     RDKit          3D

 41 43  0  0  0  0  0  0  0  0999 V2000
   -2.3912    0.9870   -0.0781 C   0  0  1  0  0  0  0  0  0  0  0  0
   -3.4699   -0.0121    0.0902 N   0  0  0  0  0  0  0  0  0  0  0  0
   -4.3151   -0.2485   -1.0898 C   0  0  0  0  0  0  0  0  0  0  0  0
   -2.8386   -1.2446    0.5651 C   0  0  0  0  0  0  0  0  0  0  0  0
   -1.6660   -0.8139    1.4225 C   0  0  0  0  0  0  0  0  0  0  0  0
   -1.1888    0.4914    0.7812 C   0  0  2  0  0  0  0  0  0  0  0  0
   -0.7372    1.5311    1.8197 C   0  0  0  0  0  0  0  0  0  0  0  0
   -0.1146    0.2444   -0.2393 C   0  0  0  0  0  0  0  0  0  0  0  0
   -0.5569    0.5785   -1.4879 C   0  0  0  0  0  0  0  0  0  0  0  0
    0.2590    0.4382   -2.6126 C   0  0  0  0  0  0  0  0  0  0  0  0
    1.5593   -0.0590   -2.4377 C   0  0  0  0  0  0  0  0  0  0  0  0
    2.0346   -0.3926   -1.1532 C   0  0  0  0  0  0  0  0  0  0  0  0
    3.3394   -0.8940   -1.0349 O   0  0  0  0  0  0  0  0  0  0  0  0
    4.1570   -0.7677    0.0955 C   0  0  0  0  0  0  0  0  0  0  0  0
    3.8942    0.0805    0.9920 O   0  0  0  0  0  0  0  0  0  0  0  0
    5.3332   -1.5754    0.1965 N   0  0  0  0  0  0  0  0  0  0  0  0
    6.2375   -1.4825    1.3357 C   0  0  0  0  0  0  0  0  0  0  0  0
    1.1777   -0.2511   -0.0382 C   0  0  0  0  0  0  0  0  0  0  0  0
   -1.8877    1.0639   -1.4617 N   0  0  0  0  0  0  0  0  0  0  0  0
   -2.4361    1.9499   -2.4872 C   0  0  0  0  0  0  0  0  0  0  0  0
   -2.7567    1.9846    0.2524 H   0  0  0  0  0  0  0  0  0  0  0  0
   -4.8081    0.6965   -1.3975 H   0  0  0  0  0  0  0  0  0  0  0  0
   -5.1195   -0.9705   -0.8332 H   0  0  0  0  0  0  0  0  0  0  0  0
   -3.7291   -0.6637   -1.9388 H   0  0  0  0  0  0  0  0  0  0  0  0
   -2.4609   -1.8573   -0.2862 H   0  0  0  0  0  0  0  0  0  0  0  0
   -3.5610   -1.8442    1.1599 H   0  0  0  0  0  0  0  0  0  0  0  0
   -0.8782   -1.5982    1.4556 H   0  0  0  0  0  0  0  0  0  0  0  0
   -2.0301   -0.6340    2.4585 H   0  0  0  0  0  0  0  0  0  0  0  0
    0.1052    1.1318    2.4239 H   0  0  0  0  0  0  0  0  0  0  0  0
   -0.4033    2.4631    1.3146 H   0  0  0  0  0  0  0  0  0  0  0  0
   -1.5749    1.7840    2.5045 H   0  0  0  0  0  0  0  0  0  0  0  0
   -0.1004    0.6986   -3.5995 H   0  0  0  0  0  0  0  0  0  0  0  0
    2.2042   -0.1787   -3.2989 H   0  0  0  0  0  0  0  0  0  0  0  0
    5.5461   -2.2554   -0.5674 H   0  0  0  0  0  0  0  0  0  0  0  0
    7.0764   -2.1992    1.2105 H   0  0  0  0  0  0  0  0  0  0  0  0
    6.6509   -0.4543    1.4055 H   0  0  0  0  0  0  0  0  0  0  0  0
    5.6916   -1.7282    2.2708 H   0  0  0  0  0  0  0  0  0  0  0  0
    1.4891   -0.5430    0.9549 H   0  0  0  0  0  0  0  0  0  0  0  0
   -3.3504    2.4589   -2.1174 H   0  0  0  0  0  0  0  0  0  0  0  0
   -1.6894    2.7271   -2.7551 H   0  0  0  0  0  0  0  0  0  0  0  0
   -2.6912    1.3586   -3.3909 H   0  0  0  0  0  0  0  0  0  0  0  0
  1  2  1  0
  2  3  1  0
  2  4  1  0
  4  5  1  0
  5  6  1  0
  6  7  1  1
  6  8  1  0
  8  9  2  0
  9 10  1  0
 10 11  2  0
 11 12  1  0
 12 13  1  0
 13 14  1  0
 14 15  2  0
 14 16  1  0
 16 17  1  0
 12 18  2  0
  9 19  1  0
 19 20  1  0
  6  1  1  0
 18  8  1  0
 19  1  1  0
  1 21  1  1
  3 22  1  0
  3 23  1  0
  3 24  1  0
  4 25  1  0
  4 26  1  0
  5 27  1  0
  5 28  1  0
  7 29  1  0
  7 30  1  0
  7 31  1  0
 10 32  1  0
 11 33  1  0
 16 34  1  0
 17 35  1  0
 17 36  1  0
 17 37  1  0
 18 38  1  0
 20 39  1  0
 20 40  1  0
 20 41  1  0
M  END
$$$$
