
     RDKit          3D

 61 63  0  0  0  0  0  0  0  0999 V2000
    2.6205   -4.6888   -1.4651 C   0  0  0  0  0  0  0  0  0  0  0  0
    1.3430   -4.3268   -1.9762 O   0  0  0  0  0  0  0  0  0  0  0  0
    0.6410   -3.2048   -1.5262 C   0  0  0  0  0  0  0  0  0  0  0  0
   -0.5969   -2.9026   -2.0803 C   0  0  0  0  0  0  0  0  0  0  0  0
   -1.3130   -1.7745   -1.6478 C   0  0  0  0  0  0  0  0  0  0  0  0
   -2.6508   -1.5141   -2.2964 C   0  0  0  0  0  0  0  0  0  0  0  0
   -0.7529   -0.9387   -0.6322 C   0  0  0  0  0  0  0  0  0  0  0  0
   -1.3902    0.2294   -0.1297 C   0  0  0  0  0  0  0  0  0  0  0  0
   -2.6367    0.6379   -0.6238 O   0  0  0  0  0  0  0  0  0  0  0  0
   -3.7640    0.9122    0.1660 C   0  0  0  0  0  0  0  0  0  0  0  0
   -3.8857    0.4365    1.4839 C   0  0  0  0  0  0  0  0  0  0  0  0
   -5.0346    0.7141    2.2267 C   0  0  0  0  0  0  0  0  0  0  0  0
   -6.0700    1.4652    1.6655 C   0  0  0  0  0  0  0  0  0  0  0  0
   -5.9595    1.9593    0.3542 C   0  0  0  0  0  0  0  0  0  0  0  0
   -4.8104    1.6525   -0.3964 C   0  0  0  0  0  0  0  0  0  0  0  0
   -7.0991    2.7219   -0.2735 C   0  0  0  0  0  0  0  0  0  0  0  0
   -7.8037    3.4276    0.6865 F   0  0  0  0  0  0  0  0  0  0  0  0
   -6.6253    3.6232   -1.2112 F   0  0  0  0  0  0  0  0  0  0  0  0
   -7.9539    1.8317   -0.8960 F   0  0  0  0  0  0  0  0  0  0  0  0
   -0.7550    1.0202    0.8472 C   0  0  0  0  0  0  0  0  0  0  0  0
   -1.3851    2.2048    1.2651 O   0  0  0  0  0  0  0  0  0  0  0  0
   -0.8747    3.0938    2.2532 C   0  0  0  0  0  0  0  0  0  0  0  0
    0.4857    0.6262    1.3674 C   0  0  0  0  0  0  0  0  0  0  0  0
    1.1254   -0.5298    0.9063 C   0  0  0  0  0  0  0  0  0  0  0  0
    2.4025   -0.9321    1.4456 N   0  0  0  0  0  0  0  0  0  0  0  0
    3.4389    0.0148    1.8844 C   0  0  0  0  0  0  0  0  0  0  0  0
    4.6391   -0.7379    2.4766 C   0  0  0  0  0  0  0  0  0  0  0  0
    3.8643    0.9524    0.7305 C   0  0  0  0  0  0  0  0  0  0  0  0
    4.3458    0.2056   -0.5261 C   0  0  0  0  0  0  0  0  0  0  0  0
    4.6450    1.1845   -1.6644 C   0  0  0  0  0  0  0  0  0  0  0  0
    5.0837    0.4565   -2.8508 N   0  0  0  0  0  0  0  0  0  0  0  0
    0.5111   -1.3059   -0.0924 C   0  0  0  0  0  0  0  0  0  0  0  0
    1.1552   -2.4088   -0.5573 N   0  0  0  0  0  0  0  0  0  0  0  0
    2.5510   -4.8894   -0.3749 H   0  0  0  0  0  0  0  0  0  0  0  0
    3.3497   -3.8714   -1.6501 H   0  0  0  0  0  0  0  0  0  0  0  0
    2.9718   -5.6074   -1.9782 H   0  0  0  0  0  0  0  0  0  0  0  0
   -0.9953   -3.5513   -2.8512 H   0  0  0  0  0  0  0  0  0  0  0  0
   -2.6388   -0.5323   -2.8141 H   0  0  0  0  0  0  0  0  0  0  0  0
   -2.8985   -2.2812   -3.0608 H   0  0  0  0  0  0  0  0  0  0  0  0
   -3.4557   -1.5457   -1.5327 H   0  0  0  0  0  0  0  0  0  0  0  0
   -3.1041   -0.1634    1.9310 H   0  0  0  0  0  0  0  0  0  0  0  0
   -5.1277    0.3373    3.2371 H   0  0  0  0  0  0  0  0  0  0  0  0
   -6.9593    1.6538    2.2537 H   0  0  0  0  0  0  0  0  0  0  0  0
   -4.7212    1.9901   -1.4217 H   0  0  0  0  0  0  0  0  0  0  0  0
    0.1078    3.4993    1.9316 H   0  0  0  0  0  0  0  0  0  0  0  0
   -0.7737    2.5664    3.2252 H   0  0  0  0  0  0  0  0  0  0  0  0
   -1.5828    3.9380    2.3801 H   0  0  0  0  0  0  0  0  0  0  0  0
    0.9529    1.2200    2.1369 H   0  0  0  0  0  0  0  0  0  0  0  0
    2.6399   -1.9507    1.4332 H   0  0  0  0  0  0  0  0  0  0  0  0
    3.0337    0.6417    2.7068 H   0  0  0  0  0  0  0  0  0  0  0  0
    5.0587   -1.4621    1.7475 H   0  0  0  0  0  0  0  0  0  0  0  0
    5.4341   -0.0233    2.7787 H   0  0  0  0  0  0  0  0  0  0  0  0
    4.3177   -1.3012    3.3785 H   0  0  0  0  0  0  0  0  0  0  0  0
    4.6714    1.6291    1.0877 H   0  0  0  0  0  0  0  0  0  0  0  0
    3.0005    1.5973    0.4598 H   0  0  0  0  0  0  0  0  0  0  0  0
    3.5663   -0.5090   -0.8677 H   0  0  0  0  0  0  0  0  0  0  0  0
    5.2701   -0.3642   -0.2933 H   0  0  0  0  0  0  0  0  0  0  0  0
    5.4344    1.9040   -1.3503 H   0  0  0  0  0  0  0  0  0  0  0  0
    3.7230    1.7563   -1.9105 H   0  0  0  0  0  0  0  0  0  0  0  0
    6.0341    0.0630   -2.6603 H   0  0  0  0  0  0  0  0  0  0  0  0
    5.2002    1.1503   -3.6245 H   0  0  0  0  0  0  0  0  0  0  0  0
  1  2  1  0
  2  3  1  0
  3  4  2  0
  4  5  1  0
  5  6  1  0
  5  7  2  0
  7  8  1  0
  8  9  1  0
  9 10  1  0
 10 11  2  0
 11 12  1  0
 12 13  2  0
 13 14  1  0
 14 15  2  0
 14 16  1  0
 16 17  1  0
 16 18  1  0
 16 19  1  0
  8 20  2  0
 20 21  1  0
 21 22  1  0
 20 23  1  0
 23 24  2  0
 24 25  1  0
 25 26  1  0
 26 27  1  0
 26 28  1  0
 28 29  1  0
 29 30  1  0
 30 31  1  0
 24 32  1  0
 32 33  2  0
 33  3  1  0
 32  7  1  0
 15 10  1  0
  1 34  1  0
  1 35  1  0
  1 36  1  0
  4 37  1  0
  6 38  1  0
  6 39  1  0
  6 40  1  0
 11 41  1  0
 12 42  1  0
 13 43  1  0
 15 44  1  0
 22 45  1  0
 22 46  1  0
 22 47  1  0
 23 48  1  0
 25 49  1  0
 26 50  1  0
 27 51  1  0
 27 52  1  0
 27 53  1  0
 28 54  1  0
 28 55  1  0
 29 56  1  0
 29 57  1  0
 30 58  1  0
 30 59  1  0
 31 60  1  0
 31 61  1  0
M  END
$$$$
