
     RDKit          3D

 76 79  0  0  0  0  0  0  0  0999 V2000
    3.1548   -4.3007   -0.7831 O   0  0  0  0  0  0  0  0  0  0  0  0
    3.3708   -3.2228   -1.6521 C   0  0  0  0  0  0  0  0  0  0  0  0
    4.2254   -2.1431   -0.9839 C   0  0  0  0  0  0  0  0  0  0  0  0
    3.6366   -1.6918    0.2852 N   0  0  0  0  0  0  0  0  0  0  0  0
    4.3682   -1.8446    1.5507 C   0  0  0  0  0  0  0  0  0  0  0  0
    3.5240   -2.5848    2.5887 C   0  0  0  0  0  0  0  0  0  0  0  0
    3.2142   -3.8695    2.1266 O   0  0  0  0  0  0  0  0  0  0  0  0
    2.4767   -0.8504    0.2582 C   0  0  0  0  0  0  0  0  0  0  0  0
    1.2478   -1.3897    0.0427 N   0  0  0  0  0  0  0  0  0  0  0  0
    0.1315   -0.6143    0.0418 C   0  0  0  0  0  0  0  0  0  0  0  0
    0.2438    0.7642    0.2886 C   0  0  0  0  0  0  0  0  0  0  0  0
   -0.8663    1.5462    0.2876 N   0  0  0  0  0  0  0  0  0  0  0  0
   -2.1013    1.0196    0.0673 C   0  0  0  0  0  0  0  0  0  0  0  0
   -2.2248   -0.3195   -0.1433 N   0  0  0  0  0  0  0  0  0  0  0  0
   -1.1501   -1.1533   -0.1737 C   0  0  0  0  0  0  0  0  0  0  0  0
   -1.3637   -2.5613   -0.3992 N   0  0  0  0  0  0  0  0  0  0  0  0
   -2.5779   -3.1887    0.1426 C   0  0  0  0  0  0  0  0  0  0  0  0
   -2.3802   -4.7002    0.2891 C   0  0  0  0  0  0  0  0  0  0  0  0
   -1.9815   -5.3704   -1.0400 C   0  0  0  0  0  0  0  0  0  0  0  0
   -1.2869   -4.4180   -2.0306 C   0  0  0  0  0  0  0  0  0  0  0  0
   -0.4961   -3.3180   -1.3160 C   0  0  0  0  0  0  0  0  0  0  0  0
   -3.2735    1.8673    0.0805 N   0  0  0  0  0  0  0  0  0  0  0  0
   -3.1495    3.2815    0.4782 C   0  0  0  0  0  0  0  0  0  0  0  0
   -2.5200    4.1303   -0.6300 C   0  0  0  0  0  0  0  0  0  0  0  0
   -3.3806    4.1986   -1.7310 O   0  0  0  0  0  0  0  0  0  0  0  0
   -4.6115    1.2646   -0.0659 C   0  0  0  0  0  0  0  0  0  0  0  0
   -4.8865    0.8378   -1.5134 C   0  0  0  0  0  0  0  0  0  0  0  0
   -4.9240    1.9495   -2.3645 O   0  0  0  0  0  0  0  0  0  0  0  0
    1.5172    1.3028    0.5235 C   0  0  0  0  0  0  0  0  0  0  0  0
    2.6007    0.4818    0.4982 N   0  0  0  0  0  0  0  0  0  0  0  0
    1.6976    2.7046    0.7760 N   0  0  0  0  0  0  0  0  0  0  0  0
    2.6830    3.4405   -0.0285 C   0  0  0  0  0  0  0  0  0  0  0  0
    2.7310    4.9251    0.3536 C   0  0  0  0  0  0  0  0  0  0  0  0
    1.3131    5.4557    0.5734 C   0  0  0  0  0  0  0  0  0  0  0  0
    0.5975    4.7243    1.7254 C   0  0  0  0  0  0  0  0  0  0  0  0
    1.1377    3.3068    1.9935 C   0  0  0  0  0  0  0  0  0  0  0  0
    4.0124   -4.7980   -0.7296 H   0  0  0  0  0  0  0  0  0  0  0  0
    3.8729   -3.5738   -2.5818 H   0  0  0  0  0  0  0  0  0  0  0  0
    2.3934   -2.7945   -1.9505 H   0  0  0  0  0  0  0  0  0  0  0  0
    5.2482   -2.5484   -0.8273 H   0  0  0  0  0  0  0  0  0  0  0  0
    4.3233   -1.2768   -1.6738 H   0  0  0  0  0  0  0  0  0  0  0  0
    4.6356   -0.8409    1.9469 H   0  0  0  0  0  0  0  0  0  0  0  0
    5.3166   -2.4044    1.4015 H   0  0  0  0  0  0  0  0  0  0  0  0
    4.1025   -2.6592    3.5361 H   0  0  0  0  0  0  0  0  0  0  0  0
    2.5889   -2.0159    2.7910 H   0  0  0  0  0  0  0  0  0  0  0  0
    2.6499   -4.2858    2.8287 H   0  0  0  0  0  0  0  0  0  0  0  0
   -2.8083   -2.7652    1.1449 H   0  0  0  0  0  0  0  0  0  0  0  0
   -3.4366   -2.9810   -0.5323 H   0  0  0  0  0  0  0  0  0  0  0  0
   -1.5790   -4.8775    1.0404 H   0  0  0  0  0  0  0  0  0  0  0  0
   -3.3130   -5.1629    0.6778 H   0  0  0  0  0  0  0  0  0  0  0  0
   -1.3057   -6.2252   -0.8187 H   0  0  0  0  0  0  0  0  0  0  0  0
   -2.8889   -5.7883   -1.5282 H   0  0  0  0  0  0  0  0  0  0  0  0
   -0.6074   -4.9968   -2.6928 H   0  0  0  0  0  0  0  0  0  0  0  0
   -2.0563   -3.9377   -2.6747 H   0  0  0  0  0  0  0  0  0  0  0  0
    0.3379   -3.7753   -0.7422 H   0  0  0  0  0  0  0  0  0  0  0  0
   -0.0745   -2.6390   -2.0890 H   0  0  0  0  0  0  0  0  0  0  0  0
   -2.5314    3.3525    1.3987 H   0  0  0  0  0  0  0  0  0  0  0  0
   -4.1394    3.7178    0.7328 H   0  0  0  0  0  0  0  0  0  0  0  0
   -2.3460    5.1562   -0.2358 H   0  0  0  0  0  0  0  0  0  0  0  0
   -1.5400    3.7081   -0.9401 H   0  0  0  0  0  0  0  0  0  0  0  0
   -2.9164    4.7540   -2.4099 H   0  0  0  0  0  0  0  0  0  0  0  0
   -5.4096    1.9698    0.2513 H   0  0  0  0  0  0  0  0  0  0  0  0
   -4.6945    0.3785    0.6003 H   0  0  0  0  0  0  0  0  0  0  0  0
   -5.8548    0.2896   -1.5594 H   0  0  0  0  0  0  0  0  0  0  0  0
   -4.1000    0.1424   -1.8703 H   0  0  0  0  0  0  0  0  0  0  0  0
   -5.7868    2.4101   -2.1933 H   0  0  0  0  0  0  0  0  0  0  0  0
    2.4032    3.3572   -1.1015 H   0  0  0  0  0  0  0  0  0  0  0  0
    3.6920    2.9938    0.1044 H   0  0  0  0  0  0  0  0  0  0  0  0
    3.3265    5.0569    1.2837 H   0  0  0  0  0  0  0  0  0  0  0  0
    3.2265    5.5019   -0.4569 H   0  0  0  0  0  0  0  0  0  0  0  0
    0.7298    5.3254   -0.3652 H   0  0  0  0  0  0  0  0  0  0  0  0
    1.3542    6.5445    0.7926 H   0  0  0  0  0  0  0  0  0  0  0  0
   -0.4855    4.6679    1.4918 H   0  0  0  0  0  0  0  0  0  0  0  0
    0.6968    5.3218    2.6578 H   0  0  0  0  0  0  0  0  0  0  0  0
    0.3249    2.6772    2.4165 H   0  0  0  0  0  0  0  0  0  0  0  0
    1.9414    3.3608    2.7597 H   0  0  0  0  0  0  0  0  0  0  0  0
  1  2  1  0
  2  3  1  0
  3  4  1  0
  4  5  1  0
  5  6  1  0
  6  7  1  0
  4  8  1  0
  8  9  2  0
  9 10  1  0
 10 11  2  0
 11 12  1  0
 12 13  2  0
 13 14  1  0
 14 15  2  0
 15 16  1  0
 16 17  1  0
 17 18  1  0
 18 19  1  0
 19 20  1  0
 20 21  1  0
 13 22  1  0
 22 23  1  0
 23 24  1  0
 24 25  1  0
 22 26  1  0
 26 27  1  0
 27 28  1  0
 11 29  1  0
 29 30  2  0
 29 31  1  0
 31 32  1  0
 32 33  1  0
 33 34  1  0
 34 35  1  0
 35 36  1  0
 30  8  1  0
 36 31  1  0
 15 10  1  0
 21 16  1  0
  1 37  1  0
  2 38  1  0
  2 39  1  0
  3 40  1  0
  3 41  1  0
  5 42  1  0
  5 43  1  0
  6 44  1  0
  6 45  1  0
  7 46  1  0
 17 47  1  0
 17 48  1  0
 18 49  1  0
 18 50  1  0
 19 51  1  0
 19 52  1  0
 20 53  1  0
 20 54  1  0
 21 55  1  0
 21 56  1  0
 23 57  1  0
 23 58  1  0
 24 59  1  0
 24 60  1  0
 25 61  1  0
 26 62  1  0
 26 63  1  0
 27 64  1  0
 27 65  1  0
 28 66  1  0
 32 67  1  0
 32 68  1  0
 33 69  1  0
 33 70  1  0
 34 71  1  0
 34 72  1  0
 35 73  1  0
 35 74  1  0
 36 75  1  0
 36 76  1  0
M  END
$$$$
