
     RDKit          3D

 57 60  0  0  0  0  0  0  0  0999 V2000
    1.0964    0.7807    0.2343 C   0  0  2  0  0  0  0  0  0  0  0  0
    1.9662    1.9821   -0.1152 C   0  0  0  0  0  0  0  0  0  0  0  0
    3.4177    1.4841    0.0272 C   0  0  0  0  0  0  0  0  0  0  0  0
    3.3646   -0.0491    0.3392 C   0  0  2  0  0  0  0  0  0  0  0  0
    3.5423   -0.2498    1.8700 C   0  0  0  0  0  0  0  0  0  0  0  0
    4.4893   -0.8593   -0.3203 C   0  0  0  0  0  0  0  0  0  0  0  0
    5.6593   -0.2235   -1.0189 C   0  0  0  0  0  0  0  0  0  0  0  0
    4.4476   -2.0802   -0.2651 O   0  0  0  0  0  0  0  0  0  0  0  0
    1.9330   -0.4436   -0.1878 C   0  0  2  0  0  0  0  0  0  0  0  0
    1.9897   -0.6220   -1.7478 C   0  0  0  0  0  0  0  0  0  0  0  0
    1.2722   -1.6991    0.4399 C   0  0  0  0  0  0  0  0  0  0  0  0
   -0.2093   -1.8398    0.0113 C   0  0  0  0  0  0  0  0  0  0  0  0
   -1.0418   -0.5472    0.2849 C   0  0  1  0  0  0  0  0  0  0  0  0
   -0.3560    0.7290   -0.2931 C   0  0  1  0  0  0  0  0  0  0  0  0
   -1.1312    1.9636    0.0932 C   0  0  0  0  0  0  0  0  0  0  0  0
   -2.4608    1.9620    0.3003 C   0  0  0  0  0  0  0  0  0  0  0  0
   -3.1410    3.2816    0.5845 C   0  0  0  0  0  0  0  0  0  0  0  0
   -3.2389    0.6748    0.3050 C   0  0  0  0  0  0  0  0  0  0  0  0
   -4.5436    0.6736    0.6569 C   0  0  0  0  0  0  0  0  0  0  0  0
   -5.3453   -0.5573    0.7192 C   0  0  0  0  0  0  0  0  0  0  0  0
   -6.5684   -0.4851    1.0118 O   0  0  0  0  0  0  0  0  0  0  0  0
   -4.7427   -1.8882    0.4074 C   0  0  0  0  0  0  0  0  0  0  0  0
   -3.2196   -1.8524    0.5642 C   0  0  0  0  0  0  0  0  0  0  0  0
   -2.5528   -0.6275   -0.1390 C   0  0  2  0  0  0  0  0  0  0  0  0
   -2.7184   -0.7644   -1.6753 C   0  0  0  0  0  0  0  0  0  0  0  0
    1.0006    0.7940    1.3437 H   0  0  0  0  0  0  0  0  0  0  0  0
    1.7665    2.3147   -1.1578 H   0  0  0  0  0  0  0  0  0  0  0  0
    1.7732    2.8300    0.5778 H   0  0  0  0  0  0  0  0  0  0  0  0
    3.9337    1.7015   -0.9300 H   0  0  0  0  0  0  0  0  0  0  0  0
    3.9488    2.0549    0.8209 H   0  0  0  0  0  0  0  0  0  0  0  0
    3.4772   -1.3234    2.1466 H   0  0  0  0  0  0  0  0  0  0  0  0
    2.8016    0.3163    2.4678 H   0  0  0  0  0  0  0  0  0  0  0  0
    4.5486    0.1051    2.1830 H   0  0  0  0  0  0  0  0  0  0  0  0
    6.4627   -0.9717   -1.1897 H   0  0  0  0  0  0  0  0  0  0  0  0
    6.0779    0.5947   -0.3964 H   0  0  0  0  0  0  0  0  0  0  0  0
    5.3389    0.1737   -2.0044 H   0  0  0  0  0  0  0  0  0  0  0  0
    2.5602   -1.5355   -2.0149 H   0  0  0  0  0  0  0  0  0  0  0  0
    1.0001   -0.7456   -2.2220 H   0  0  0  0  0  0  0  0  0  0  0  0
    2.4813    0.2389   -2.2454 H   0  0  0  0  0  0  0  0  0  0  0  0
    1.2896   -1.6402    1.5486 H   0  0  0  0  0  0  0  0  0  0  0  0
    1.8290   -2.6145    0.1459 H   0  0  0  0  0  0  0  0  0  0  0  0
   -0.2688   -2.1344   -1.0541 H   0  0  0  0  0  0  0  0  0  0  0  0
   -0.6269   -2.6843    0.5971 H   0  0  0  0  0  0  0  0  0  0  0  0
   -1.0393   -0.4308    1.3950 H   0  0  0  0  0  0  0  0  0  0  0  0
   -0.3395    0.7136   -1.3969 H   0  0  0  0  0  0  0  0  0  0  0  0
   -0.6011    2.9080    0.0915 H   0  0  0  0  0  0  0  0  0  0  0  0
   -2.4636    4.1501    0.4368 H   0  0  0  0  0  0  0  0  0  0  0  0
   -3.4961    3.2996    1.6362 H   0  0  0  0  0  0  0  0  0  0  0  0
   -4.0022    3.4168   -0.1030 H   0  0  0  0  0  0  0  0  0  0  0  0
   -5.0460    1.5861    0.9459 H   0  0  0  0  0  0  0  0  0  0  0  0
   -5.0206   -2.1842   -0.6258 H   0  0  0  0  0  0  0  0  0  0  0  0
   -5.1585   -2.6535    1.0982 H   0  0  0  0  0  0  0  0  0  0  0  0
   -2.8230   -2.8047    0.1524 H   0  0  0  0  0  0  0  0  0  0  0  0
   -2.9834   -1.8312    1.6518 H   0  0  0  0  0  0  0  0  0  0  0  0
   -3.7911   -0.7659   -1.9587 H   0  0  0  0  0  0  0  0  0  0  0  0
   -2.2665    0.0871   -2.2202 H   0  0  0  0  0  0  0  0  0  0  0  0
   -2.2714   -1.7082   -2.0483 H   0  0  0  0  0  0  0  0  0  0  0  0
  1  2  1  0
  2  3  1  0
  3  4  1  0
  4  5  1  1
  4  6  1  0
  6  7  1  0
  6  8  2  0
  4  9  1  0
  9 10  1  6
  9 11  1  0
 11 12  1  0
 12 13  1  0
 13 14  1  0
 14 15  1  0
 15 16  2  0
 16 17  1  0
 16 18  1  0
 18 19  2  0
 19 20  1  0
 20 21  2  0
 20 22  1  0
 22 23  1  0
 23 24  1  0
 24 25  1  6
  9  1  1  0
 24 13  1  0
 14  1  1  0
 24 18  1  0
  1 26  1  1
  2 27  1  0
  2 28  1  0
  3 29  1  0
  3 30  1  0
  5 31  1  0
  5 32  1  0
  5 33  1  0
  7 34  1  0
  7 35  1  0
  7 36  1  0
 10 37  1  0
 10 38  1  0
 10 39  1  0
 11 40  1  0
 11 41  1  0
 12 42  1  0
 12 43  1  0
 13 44  1  1
 14 45  1  6
 15 46  1  0
 17 47  1  0
 17 48  1  0
 17 49  1  0
 19 50  1  0
 22 51  1  0
 22 52  1  0
 23 53  1  0
 23 54  1  0
 25 55  1  0
 25 56  1  0
 25 57  1  0
M  END
$$$$
