
     RDKit          3D

 38 38  0  0  0  0  0  0  0  0999 V2000
   -4.6596   -0.7695   -0.7074 C   0  0  0  0  0  0  0  0  0  0  0  0
   -3.4009    0.0241   -0.2974 C   0  0  0  0  0  0  0  0  0  0  0  0
   -3.1618    1.1143   -1.3653 C   0  0  0  0  0  0  0  0  0  0  0  0
   -3.6627    0.6793    1.0780 C   0  0  0  0  0  0  0  0  0  0  0  0
   -2.2579   -0.9231   -0.2513 N   0  0  0  0  0  0  0  0  0  0  0  0
   -0.9989   -0.3657    0.2734 C   0  0  0  0  0  0  0  0  0  0  0  0
    0.1695   -1.3191   -0.0433 C   0  0  2  0  0  0  0  0  0  0  0  0
   -0.0055   -2.5783    0.5601 O   0  0  0  0  0  0  0  0  0  0  0  0
    1.5019   -0.7155    0.3585 C   0  0  0  0  0  0  0  0  0  0  0  0
    2.4540   -0.3915   -0.6237 C   0  0  0  0  0  0  0  0  0  0  0  0
    3.6924    0.1688   -0.2687 C   0  0  0  0  0  0  0  0  0  0  0  0
    4.6798    0.5364   -1.3462 C   0  0  0  0  0  0  0  0  0  0  0  0
    4.4492    1.8475   -1.7831 O   0  0  0  0  0  0  0  0  0  0  0  0
    3.9679    0.4383    1.0849 C   0  0  0  0  0  0  0  0  0  0  0  0
    5.1794    1.0238    1.4525 O   0  0  0  0  0  0  0  0  0  0  0  0
    3.0199    0.1191    2.0652 C   0  0  0  0  0  0  0  0  0  0  0  0
    1.7983   -0.4538    1.7073 C   0  0  0  0  0  0  0  0  0  0  0  0
   -5.5446   -0.1020   -0.7923 H   0  0  0  0  0  0  0  0  0  0  0  0
   -4.4995   -1.2673   -1.6882 H   0  0  0  0  0  0  0  0  0  0  0  0
   -4.8915   -1.5535    0.0455 H   0  0  0  0  0  0  0  0  0  0  0  0
   -2.3919    1.8454   -1.0447 H   0  0  0  0  0  0  0  0  0  0  0  0
   -4.0929    1.6921   -1.5525 H   0  0  0  0  0  0  0  0  0  0  0  0
   -2.8372    0.6519   -2.3222 H   0  0  0  0  0  0  0  0  0  0  0  0
   -3.7615   -0.0983    1.8655 H   0  0  0  0  0  0  0  0  0  0  0  0
   -4.5997    1.2767    1.0541 H   0  0  0  0  0  0  0  0  0  0  0  0
   -2.8379    1.3673    1.3596 H   0  0  0  0  0  0  0  0  0  0  0  0
   -2.5165   -1.7347    0.3594 H   0  0  0  0  0  0  0  0  0  0  0  0
   -1.0737   -0.2162    1.3731 H   0  0  0  0  0  0  0  0  0  0  0  0
   -0.7715    0.6118   -0.1977 H   0  0  0  0  0  0  0  0  0  0  0  0
    0.1625   -1.4843   -1.1433 H   0  0  0  0  0  0  0  0  0  0  0  0
   -0.1730   -2.4374    1.5280 H   0  0  0  0  0  0  0  0  0  0  0  0
    2.2331   -0.5738   -1.6688 H   0  0  0  0  0  0  0  0  0  0  0  0
    5.7269    0.4229   -0.9846 H   0  0  0  0  0  0  0  0  0  0  0  0
    4.5698   -0.1508   -2.2122 H   0  0  0  0  0  0  0  0  0  0  0  0
    4.8262    2.4488   -1.0887 H   0  0  0  0  0  0  0  0  0  0  0  0
    5.3987    1.2281    2.4205 H   0  0  0  0  0  0  0  0  0  0  0  0
    3.2275    0.3209    3.1084 H   0  0  0  0  0  0  0  0  0  0  0  0
    1.0818   -0.6828    2.4853 H   0  0  0  0  0  0  0  0  0  0  0  0
  1  2  1  0
  2  3  1  0
  2  4  1  0
  2  5  1  0
  5  6  1  0
  6  7  1  0
  7  8  1  0
  7  9  1  0
  9 10  2  0
 10 11  1  0
 11 12  1  0
 12 13  1  0
 11 14  2  0
 14 15  1  0
 14 16  1  0
 16 17  2  0
 17  9  1  0
  1 18  1  0
  1 19  1  0
  1 20  1  0
  3 21  1  0
  3 22  1  0
  3 23  1  0
  4 24  1  0
  4 25  1  0
  4 26  1  0
  5 27  1  0
  6 28  1  0
  6 29  1  0
  7 30  1  6
  8 31  1  0
 10 32  1  0
 12 33  1  0
 12 34  1  0
 13 35  1  0
 15 36  1  0
 16 37  1  0
 17 38  1  0
M  END
$$$$
