
     RDKit          3D

 64 67  0  0  0  0  0  0  0  0999 V2000
   -0.4887    0.8728   -0.8039 C   0  0  2  0  0  0  0  0  0  0  0  0
   -1.3321   -0.0239    0.1210 C   0  0  0  0  0  0  0  0  0  0  0  0
   -2.2215   -1.0100   -0.6253 C   0  0  0  0  0  0  0  0  0  0  0  0
   -3.3977   -1.5171   -0.0082 C   0  0  0  0  0  0  0  0  0  0  0  0
   -3.8711   -1.0395    1.3482 C   0  0  0  0  0  0  0  0  0  0  0  0
   -4.4746    0.2983    1.2363 N   0  0  0  0  0  0  0  0  0  0  0  0
   -4.7531    0.8356    2.5726 C   0  0  0  0  0  0  0  0  0  0  0  0
   -5.6665    0.1729    0.5877 O   0  0  0  0  0  0  0  0  0  0  0  0
   -5.6081    1.0428   -0.5145 C   0  0  0  0  0  0  0  0  0  0  0  0
   -4.1811   -2.4593   -0.6856 C   0  0  0  0  0  0  0  0  0  0  0  0
   -3.7730   -2.9733   -1.9090 C   0  0  0  0  0  0  0  0  0  0  0  0
   -2.5811   -2.5550   -2.4973 C   0  0  0  0  0  0  0  0  0  0  0  0
   -2.1795   -3.2215   -3.6576 O   0  0  0  0  0  0  0  0  0  0  0  0
   -1.8186   -1.5198   -1.8929 C   0  0  0  0  0  0  0  0  0  0  0  0
   -0.6437   -0.9085   -2.5746 C   0  0  0  0  0  0  0  0  0  0  0  0
   -0.4805   -1.0367   -3.8177 O   0  0  0  0  0  0  0  0  0  0  0  0
    0.2291    0.0173   -1.8269 C   0  0  0  0  0  0  0  0  0  0  0  0
    1.5498    0.1499   -2.1008 C   0  0  0  0  0  0  0  0  0  0  0  0
    2.2079   -0.7238   -2.9758 O   0  0  0  0  0  0  0  0  0  0  0  0
    2.3575    1.2810   -1.4876 C   0  0  2  0  0  0  0  0  0  0  0  0
    2.1320    2.4704   -2.2132 O   0  0  0  0  0  0  0  0  0  0  0  0
    3.8341    0.9586   -1.4944 C   0  0  0  0  0  0  0  0  0  0  0  0
    4.5485    1.3423   -2.4613 O   0  0  0  0  0  0  0  0  0  0  0  0
    4.4176    0.0964   -0.4416 C   0  0  0  0  0  0  0  0  0  0  0  0
    5.7842   -0.4478   -0.6361 C   0  0  0  0  0  0  0  0  0  0  0  0
    6.8628    0.4101   -1.0117 N   0  0  0  0  0  0  0  0  0  0  0  0
    6.0051   -1.6773   -0.4677 O   0  0  0  0  0  0  0  0  0  0  0  0
    3.6884   -0.2559    0.6387 C   0  0  0  0  0  0  0  0  0  0  0  0
    4.2020   -1.2323    1.4949 O   0  0  0  0  0  0  0  0  0  0  0  0
    2.3020    0.3388    0.9254 C   0  0  1  0  0  0  0  0  0  0  0  0
    2.1444    0.8356    2.3237 N   0  0  0  0  0  0  0  0  0  0  0  0
    3.3474    1.4283    2.9337 C   0  0  0  0  0  0  0  0  0  0  0  0
    1.4624   -0.0898    3.2424 C   0  0  0  0  0  0  0  0  0  0  0  0
    1.9224    1.5112   -0.0312 C   0  0  2  0  0  0  0  0  0  0  0  0
    0.4144    1.8407    0.0148 C   0  0  0  0  0  0  0  0  0  0  0  0
   -1.2087    1.5066   -1.3707 H   0  0  0  0  0  0  0  0  0  0  0  0
   -0.6738   -0.6104    0.7900 H   0  0  0  0  0  0  0  0  0  0  0  0
   -1.9450    0.6508    0.7528 H   0  0  0  0  0  0  0  0  0  0  0  0
   -3.0032   -1.0213    2.0442 H   0  0  0  0  0  0  0  0  0  0  0  0
   -4.6020   -1.7577    1.7869 H   0  0  0  0  0  0  0  0  0  0  0  0
   -3.8048    0.9719    3.1358 H   0  0  0  0  0  0  0  0  0  0  0  0
   -5.4305    0.1618    3.1434 H   0  0  0  0  0  0  0  0  0  0  0  0
   -5.2358    1.8319    2.4816 H   0  0  0  0  0  0  0  0  0  0  0  0
   -4.7782    0.7618   -1.2003 H   0  0  0  0  0  0  0  0  0  0  0  0
   -6.5596    0.9675   -1.0794 H   0  0  0  0  0  0  0  0  0  0  0  0
   -5.4875    2.0970   -0.1801 H   0  0  0  0  0  0  0  0  0  0  0  0
   -5.1019   -2.8259   -0.2484 H   0  0  0  0  0  0  0  0  0  0  0  0
   -4.3706   -3.7389   -2.3880 H   0  0  0  0  0  0  0  0  0  0  0  0
   -1.2305   -3.2238   -4.0039 H   0  0  0  0  0  0  0  0  0  0  0  0
    1.8130   -1.5978   -3.2978 H   0  0  0  0  0  0  0  0  0  0  0  0
    2.2862    2.2829   -3.1770 H   0  0  0  0  0  0  0  0  0  0  0  0
    6.7352    1.4452   -1.0579 H   0  0  0  0  0  0  0  0  0  0  0  0
    7.8129    0.0135   -1.1853 H   0  0  0  0  0  0  0  0  0  0  0  0
    3.6525   -1.6567    2.2264 H   0  0  0  0  0  0  0  0  0  0  0  0
    1.5936   -0.4927    0.7313 H   0  0  0  0  0  0  0  0  0  0  0  0
    3.8719    2.0885    2.2111 H   0  0  0  0  0  0  0  0  0  0  0  0
    3.0536    2.0544    3.8027 H   0  0  0  0  0  0  0  0  0  0  0  0
    4.0500    0.6440    3.2869 H   0  0  0  0  0  0  0  0  0  0  0  0
    1.1225    0.4667    4.1415 H   0  0  0  0  0  0  0  0  0  0  0  0
    2.1286   -0.9075    3.5783 H   0  0  0  0  0  0  0  0  0  0  0  0
    0.5563   -0.5218    2.7721 H   0  0  0  0  0  0  0  0  0  0  0  0
    2.4600    2.4191    0.3271 H   0  0  0  0  0  0  0  0  0  0  0  0
    0.2805    2.8651   -0.3992 H   0  0  0  0  0  0  0  0  0  0  0  0
    0.0744    1.9146    1.0709 H   0  0  0  0  0  0  0  0  0  0  0  0
  1  2  1  0
  2  3  1  0
  3  4  2  0
  4  5  1  0
  5  6  1  0
  6  7  1  0
  6  8  1  0
  8  9  1  0
  4 10  1  0
 10 11  2  0
 11 12  1  0
 12 13  1  0
 12 14  2  0
 14 15  1  0
 15 16  2  0
 15 17  1  0
 17 18  2  0
 18 19  1  0
 18 20  1  0
 20 21  1  6
 20 22  1  0
 22 23  2  0
 22 24  1  0
 24 25  1  0
 25 26  1  0
 25 27  2  0
 24 28  2  0
 28 29  1  0
 28 30  1  0
 30 31  1  0
 31 32  1  0
 31 33  1  0
 30 34  1  0
 34 35  1  0
 17  1  1  0
 34 20  1  0
 35  1  1  0
 14  3  1  0
  1 36  1  6
  2 37  1  0
  2 38  1  0
  5 39  1  0
  5 40  1  0
  7 41  1  0
  7 42  1  0
  7 43  1  0
  9 44  1  0
  9 45  1  0
  9 46  1  0
 10 47  1  0
 11 48  1  0
 13 49  1  0
 19 50  1  0
 21 51  1  0
 26 52  1  0
 26 53  1  0
 29 54  1  0
 30 55  1  1
 32 56  1  0
 32 57  1  0
 32 58  1  0
 33 59  1  0
 33 60  1  0
 33 61  1  0
 34 62  1  1
 35 63  1  0
 35 64  1  0
M  END
$$$$
