
     RDKit          3D

 56 59  0  0  0  0  0  0  0  0999 V2000
   -4.4677    0.6676   -0.0914 C   0  0  1  0  0  0  0  0  0  0  0  0
   -5.3958    1.4753   -1.0348 C   0  0  0  0  0  0  0  0  0  0  0  0
   -5.8062    0.7604   -2.2529 C   0  0  0  0  0  0  0  0  0  0  0  0
   -6.1308    0.1995   -3.2117 N   0  0  0  0  0  0  0  0  0  0  0  0
   -4.9146   -0.7875    0.2032 C   0  0  0  0  0  0  0  0  0  0  0  0
   -3.6256   -1.5928    0.4552 C   0  0  0  0  0  0  0  0  0  0  0  0
   -2.5293   -0.5349    0.5163 C   0  0  1  0  0  0  0  0  0  0  0  0
   -1.0601   -0.9519    0.3163 C   0  0  2  0  0  0  0  0  0  0  0  0
   -0.6374   -2.0645    1.2829 C   0  0  0  0  0  0  0  0  0  0  0  0
    0.7779   -2.5372    0.9420 C   0  0  0  0  0  0  0  0  0  0  0  0
    1.7488   -1.4063    0.6749 C   0  0  0  0  0  0  0  0  0  0  0  0
    3.1105   -1.7236    0.6014 C   0  0  0  0  0  0  0  0  0  0  0  0
    4.0784   -0.7558    0.3242 C   0  0  0  0  0  0  0  0  0  0  0  0
    5.4094   -1.2105    0.2695 O   0  0  0  0  0  0  0  0  0  0  0  0
    6.8045   -0.3172   -0.1647 S   0  0  0  0  0  6  0  0  0  0  0  0
    8.1625   -1.3850   -0.1961 N   0  0  0  0  0  0  0  0  0  0  0  0
    6.6267    0.2869   -1.5296 O   0  0  0  0  0  0  0  0  0  0  0  0
    7.0600    0.7660    0.8456 O   0  0  0  0  0  0  0  0  0  0  0  0
    3.6743    0.5854    0.1279 C   0  0  0  0  0  0  0  0  0  0  0  0
    4.6333    1.5810   -0.1105 O   0  0  0  0  0  0  0  0  0  0  0  0
    4.3520    2.9600   -0.3297 C   0  0  0  0  0  0  0  0  0  0  0  0
    2.3027    0.9050    0.1878 C   0  0  0  0  0  0  0  0  0  0  0  0
    1.3211   -0.0802    0.4167 C   0  0  0  0  0  0  0  0  0  0  0  0
   -0.1570    0.2934    0.5646 C   0  0  1  0  0  0  0  0  0  0  0  0
   -0.6054    1.5086   -0.3077 C   0  0  0  0  0  0  0  0  0  0  0  0
   -2.1239    1.8088   -0.2118 C   0  0  0  0  0  0  0  0  0  0  0  0
   -2.9724    0.5465   -0.4828 C   0  0  2  0  0  0  0  0  0  0  0  0
   -2.8226    0.1201   -1.9775 C   0  0  0  0  0  0  0  0  0  0  0  0
   -4.5065    1.2099    0.8830 H   0  0  0  0  0  0  0  0  0  0  0  0
   -6.3199    1.7428   -0.4795 H   0  0  0  0  0  0  0  0  0  0  0  0
   -4.8982    2.4241   -1.3253 H   0  0  0  0  0  0  0  0  0  0  0  0
   -5.5714   -0.8113    1.1002 H   0  0  0  0  0  0  0  0  0  0  0  0
   -5.4671   -1.2438   -0.6445 H   0  0  0  0  0  0  0  0  0  0  0  0
   -3.6912   -2.1589    1.4099 H   0  0  0  0  0  0  0  0  0  0  0  0
   -3.4366   -2.3040   -0.3783 H   0  0  0  0  0  0  0  0  0  0  0  0
   -2.5909   -0.1117    1.5503 H   0  0  0  0  0  0  0  0  0  0  0  0
   -0.9113   -1.3378   -0.7137 H   0  0  0  0  0  0  0  0  0  0  0  0
   -0.6707   -1.6998    2.3336 H   0  0  0  0  0  0  0  0  0  0  0  0
   -1.3249   -2.9334    1.2000 H   0  0  0  0  0  0  0  0  0  0  0  0
    0.7336   -3.1785    0.0346 H   0  0  0  0  0  0  0  0  0  0  0  0
    1.1524   -3.1640    1.7806 H   0  0  0  0  0  0  0  0  0  0  0  0
    3.4287   -2.7478    0.7595 H   0  0  0  0  0  0  0  0  0  0  0  0
    7.9307   -2.1507   -0.8676 H   0  0  0  0  0  0  0  0  0  0  0  0
    8.2247   -1.8244    0.7496 H   0  0  0  0  0  0  0  0  0  0  0  0
    3.8552    3.3957    0.5627 H   0  0  0  0  0  0  0  0  0  0  0  0
    3.7096    3.0815   -1.2274 H   0  0  0  0  0  0  0  0  0  0  0  0
    5.3056    3.4997   -0.5017 H   0  0  0  0  0  0  0  0  0  0  0  0
    2.0081    1.9324    0.0657 H   0  0  0  0  0  0  0  0  0  0  0  0
   -0.2873    0.6081    1.6251 H   0  0  0  0  0  0  0  0  0  0  0  0
   -0.0933    2.4293    0.0395 H   0  0  0  0  0  0  0  0  0  0  0  0
   -0.3083    1.3472   -1.3650 H   0  0  0  0  0  0  0  0  0  0  0  0
   -2.3423    2.2043    0.8050 H   0  0  0  0  0  0  0  0  0  0  0  0
   -2.3866    2.6092   -0.9370 H   0  0  0  0  0  0  0  0  0  0  0  0
   -3.1466    0.9457   -2.6445 H   0  0  0  0  0  0  0  0  0  0  0  0
   -3.4291   -0.7784   -2.2130 H   0  0  0  0  0  0  0  0  0  0  0  0
   -1.7793   -0.1027   -2.2661 H   0  0  0  0  0  0  0  0  0  0  0  0
  1  2  1  0
  2  3  1  0
  3  4  3  0
  1  5  1  0
  5  6  1  0
  6  7  1  0
  7  8  1  0
  8  9  1  0
  9 10  1  0
 10 11  1  0
 11 12  2  0
 12 13  1  0
 13 14  1  0
 14 15  1  0
 15 16  1  0
 15 17  2  0
 15 18  2  0
 13 19  2  0
 19 20  1  0
 20 21  1  0
 19 22  1  0
 22 23  2  0
 23 24  1  0
 24 25  1  0
 25 26  1  0
 26 27  1  0
 27 28  1  6
 27  1  1  0
 27  7  1  0
 24  8  1  0
 23 11  1  0
  1 29  1  1
  2 30  1  0
  2 31  1  0
  5 32  1  0
  5 33  1  0
  6 34  1  0
  6 35  1  0
  7 36  1  1
  8 37  1  6
  9 38  1  0
  9 39  1  0
 10 40  1  0
 10 41  1  0
 12 42  1  0
 16 43  1  0
 16 44  1  0
 21 45  1  0
 21 46  1  0
 21 47  1  0
 22 48  1  0
 24 49  1  1
 25 50  1  0
 25 51  1  0
 26 52  1  0
 26 53  1  0
 28 54  1  0
 28 55  1  0
 28 56  1  0
M  END
$$$$
