
     RDKit          3D

 60 63  0  0  0  0  0  0  0  0999 V2000
    0.0022    1.1750    0.9360 C   0  0  2  0  0  0  0  0  0  0  0  0
    0.6665    2.5121    1.2408 C   0  0  0  0  0  0  0  0  0  0  0  0
    2.0270    2.0725    1.6983 C   0  0  0  0  0  0  0  0  0  0  0  0
    2.8187    2.8586    2.4419 C   0  0  0  0  0  0  0  0  0  0  0  0
    2.2983    0.6017    1.4083 C   0  0  2  0  0  0  0  0  0  0  0  0
    2.1324   -0.0760    2.6350 O   0  0  0  0  0  0  0  0  0  0  0  0
    3.7125    0.3629    0.8457 C   0  0  0  0  0  0  0  0  0  0  0  0
    4.4190    1.3140    0.5414 O   0  0  0  0  0  0  0  0  0  0  0  0
    4.2577   -1.0189    0.5995 C   0  0  0  0  0  0  0  0  0  0  0  0
    4.6448   -1.1385   -0.7655 O   0  0  0  0  0  0  0  0  0  0  0  0
    5.1798   -2.3142   -1.2982 C   0  0  0  0  0  0  0  0  0  0  0  0
    5.5245   -2.3730   -2.7473 C   0  0  0  0  0  0  0  0  0  0  0  0
    5.3322   -3.3378   -0.5774 O   0  0  0  0  0  0  0  0  0  0  0  0
    1.1361    0.2822    0.3904 C   0  0  2  0  0  0  0  0  0  0  0  0
    1.5874    0.7050   -1.0512 C   0  0  0  0  0  0  0  0  0  0  0  0
    0.6094   -1.1794    0.3758 C   0  0  0  0  0  0  0  0  0  0  0  0
   -0.7138   -1.3392   -0.4297 C   0  0  2  0  0  0  0  0  0  0  0  0
   -0.4549   -1.2497   -1.8049 O   0  0  0  0  0  0  0  0  0  0  0  0
   -1.8305   -0.3244    0.0180 C   0  0  1  0  0  0  0  0  0  0  0  0
   -2.1550   -0.6872    1.3226 F   0  0  0  0  0  0  0  0  0  0  0  0
   -1.2839    1.1526    0.0754 C   0  0  1  0  0  0  0  0  0  0  0  0
   -2.3442    2.1069    0.6690 C   0  0  0  0  0  0  0  0  0  0  0  0
   -3.6479    2.0621   -0.1257 C   0  0  0  0  0  0  0  0  0  0  0  0
   -4.1408    0.6404   -0.2235 C   0  0  0  0  0  0  0  0  0  0  0  0
   -5.3889    0.3460    0.1749 C   0  0  0  0  0  0  0  0  0  0  0  0
   -5.8817   -1.0301    0.1460 C   0  0  0  0  0  0  0  0  0  0  0  0
   -7.0608   -1.2890    0.5039 O   0  0  0  0  0  0  0  0  0  0  0  0
   -4.9920   -2.1048   -0.2848 C   0  0  0  0  0  0  0  0  0  0  0  0
   -3.7513   -1.8356   -0.6923 C   0  0  0  0  0  0  0  0  0  0  0  0
   -3.1845   -0.4178   -0.8018 C   0  0  2  0  0  0  0  0  0  0  0  0
   -3.0330   -0.1233   -2.3157 C   0  0  0  0  0  0  0  0  0  0  0  0
   -0.2941    0.7717    1.9359 H   0  0  0  0  0  0  0  0  0  0  0  0
    0.1227    3.0464    2.0507 H   0  0  0  0  0  0  0  0  0  0  0  0
    0.7446    3.1533    0.3370 H   0  0  0  0  0  0  0  0  0  0  0  0
    3.7549    2.4848    2.8436 H   0  0  0  0  0  0  0  0  0  0  0  0
    2.5275    3.8800    2.6660 H   0  0  0  0  0  0  0  0  0  0  0  0
    2.3329   -1.0362    2.5079 H   0  0  0  0  0  0  0  0  0  0  0  0
    5.1442   -1.1745    1.2512 H   0  0  0  0  0  0  0  0  0  0  0  0
    3.5120   -1.8034    0.8317 H   0  0  0  0  0  0  0  0  0  0  0  0
    6.4297   -2.9980   -2.8993 H   0  0  0  0  0  0  0  0  0  0  0  0
    5.7261   -1.3508   -3.1305 H   0  0  0  0  0  0  0  0  0  0  0  0
    4.6757   -2.8125   -3.3112 H   0  0  0  0  0  0  0  0  0  0  0  0
    2.2967   -0.0408   -1.4658 H   0  0  0  0  0  0  0  0  0  0  0  0
    0.7641    0.7919   -1.7787 H   0  0  0  0  0  0  0  0  0  0  0  0
    2.0993    1.6900   -1.0474 H   0  0  0  0  0  0  0  0  0  0  0  0
    0.4066   -1.5231    1.4125 H   0  0  0  0  0  0  0  0  0  0  0  0
    1.3780   -1.8602   -0.0458 H   0  0  0  0  0  0  0  0  0  0  0  0
   -1.0825   -2.3664   -0.2068 H   0  0  0  0  0  0  0  0  0  0  0  0
    0.0055   -2.0881   -2.0714 H   0  0  0  0  0  0  0  0  0  0  0  0
   -1.0547    1.5276   -0.9384 H   0  0  0  0  0  0  0  0  0  0  0  0
   -1.9644    3.1511    0.6488 H   0  0  0  0  0  0  0  0  0  0  0  0
   -2.5522    1.8427    1.7297 H   0  0  0  0  0  0  0  0  0  0  0  0
   -4.3897    2.7233    0.3741 H   0  0  0  0  0  0  0  0  0  0  0  0
   -3.4810    2.4686   -1.1458 H   0  0  0  0  0  0  0  0  0  0  0  0
   -6.0455    1.1214    0.5520 H   0  0  0  0  0  0  0  0  0  0  0  0
   -5.3452   -3.1287   -0.2774 H   0  0  0  0  0  0  0  0  0  0  0  0
   -3.1536   -2.6670   -1.0428 H   0  0  0  0  0  0  0  0  0  0  0  0
   -4.0336    0.0411   -2.7725 H   0  0  0  0  0  0  0  0  0  0  0  0
   -2.4245    0.7798   -2.5141 H   0  0  0  0  0  0  0  0  0  0  0  0
   -2.5845   -0.9770   -2.8642 H   0  0  0  0  0  0  0  0  0  0  0  0
  1  2  1  0
  2  3  1  0
  3  4  2  3
  3  5  1  0
  5  6  1  1
  5  7  1  0
  7  8  2  0
  7  9  1  0
  9 10  1  0
 10 11  1  0
 11 12  1  0
 11 13  2  0
  5 14  1  0
 14 15  1  6
 14 16  1  0
 16 17  1  0
 17 18  1  0
 17 19  1  0
 19 20  1  1
 19 21  1  0
 21 22  1  0
 22 23  1  0
 23 24  1  0
 24 25  2  0
 25 26  1  0
 26 27  2  0
 26 28  1  0
 28 29  2  0
 29 30  1  0
 30 31  1  6
 14  1  1  0
 30 19  1  0
 21  1  1  0
 30 24  1  0
  1 32  1  1
  2 33  1  0
  2 34  1  0
  4 35  1  0
  4 36  1  0
  6 37  1  0
  9 38  1  0
  9 39  1  0
 12 40  1  0
 12 41  1  0
 12 42  1  0
 15 43  1  0
 15 44  1  0
 15 45  1  0
 16 46  1  0
 16 47  1  0
 17 48  1  6
 18 49  1  0
 21 50  1  6
 22 51  1  0
 22 52  1  0
 23 53  1  0
 23 54  1  0
 25 55  1  0
 28 56  1  0
 29 57  1  0
 31 58  1  0
 31 59  1  0
 31 60  1  0
M  END
$$$$
