
     RDKit          3D

 35 37  0  0  0  0  0  0  0  0999 V2000
    3.8837   -1.7973    0.9872 O   0  0  0  0  0  0  0  0  0  0  0  0
    3.4217   -0.4936    0.8370 C   0  0  0  0  0  0  0  0  0  0  0  0
    4.2322    0.4706    0.8729 O   0  0  0  0  0  0  0  0  0  0  0  0
    1.9690   -0.2430    0.5850 C   0  0  0  0  0  0  0  0  0  0  0  0
    1.6722   -0.2866   -0.9230 C   0  0  0  0  0  0  0  0  0  0  0  0
    0.1824   -0.0427   -1.2674 C   0  0  0  0  0  0  0  0  0  0  0  0
   -0.2512    1.3493   -0.8428 C   0  0  0  0  0  0  0  0  0  0  0  0
    0.2540    2.4789   -1.5088 C   0  0  0  0  0  0  0  0  0  0  0  0
   -0.0729    3.7642   -1.0683 C   0  0  0  0  0  0  0  0  0  0  0  0
   -0.9035    3.9375    0.0425 C   0  0  0  0  0  0  0  0  0  0  0  0
   -1.2139    5.2248    0.4749 O   0  0  0  0  0  0  0  0  0  0  0  0
   -1.4179    2.8170    0.7079 C   0  0  0  0  0  0  0  0  0  0  0  0
   -1.1052    1.5280    0.2633 C   0  0  0  0  0  0  0  0  0  0  0  0
   -1.6665    0.4261    0.9118 O   0  0  0  0  0  0  0  0  0  0  0  0
   -1.5334   -0.8726    0.4164 C   0  0  0  0  0  0  0  0  0  0  0  0
   -0.6947   -1.1366   -0.6843 C   0  0  0  0  0  0  0  0  0  0  0  0
   -0.6241   -2.4439   -1.1948 C   0  0  0  0  0  0  0  0  0  0  0  0
   -1.3639   -3.4734   -0.6068 C   0  0  0  0  0  0  0  0  0  0  0  0
   -2.1799   -3.2097    0.5007 C   0  0  0  0  0  0  0  0  0  0  0  0
   -2.9154   -4.2298    1.0999 O   0  0  0  0  0  0  0  0  0  0  0  0
   -2.2610   -1.9099    1.0093 C   0  0  0  0  0  0  0  0  0  0  0  0
    4.8670   -1.9852    1.1419 H   0  0  0  0  0  0  0  0  0  0  0  0
    1.3772   -1.0193    1.1149 H   0  0  0  0  0  0  0  0  0  0  0  0
    1.6933    0.7489    1.0032 H   0  0  0  0  0  0  0  0  0  0  0  0
    1.9825   -1.2756   -1.3265 H   0  0  0  0  0  0  0  0  0  0  0  0
    2.2954    0.4770   -1.4385 H   0  0  0  0  0  0  0  0  0  0  0  0
    0.0814   -0.0952   -2.3746 H   0  0  0  0  0  0  0  0  0  0  0  0
    0.9114    2.3631   -2.3615 H   0  0  0  0  0  0  0  0  0  0  0  0
    0.3261    4.6270   -1.5864 H   0  0  0  0  0  0  0  0  0  0  0  0
   -1.8136    5.3841    1.2761 H   0  0  0  0  0  0  0  0  0  0  0  0
   -2.0711    2.9459    1.5617 H   0  0  0  0  0  0  0  0  0  0  0  0
    0.0140   -2.6675   -2.0407 H   0  0  0  0  0  0  0  0  0  0  0  0
   -1.2962   -4.4767   -1.0076 H   0  0  0  0  0  0  0  0  0  0  0  0
   -2.8790   -5.1818    0.7546 H   0  0  0  0  0  0  0  0  0  0  0  0
   -2.9005   -1.7023    1.8582 H   0  0  0  0  0  0  0  0  0  0  0  0
  1  2  1  0
  2  3  2  0
  2  4  1  0
  4  5  1  0
  5  6  1  0
  6  7  1  0
  7  8  2  0
  8  9  1  0
  9 10  2  0
 10 11  1  0
 10 12  1  0
 12 13  2  0
 13 14  1  0
 14 15  1  0
 15 16  2  0
 16 17  1  0
 17 18  2  0
 18 19  1  0
 19 20  1  0
 19 21  2  0
 16  6  1  0
 13  7  1  0
 21 15  1  0
  1 22  1  0
  4 23  1  0
  4 24  1  0
  5 25  1  0
  5 26  1  0
  6 27  1  0
  8 28  1  0
  9 29  1  0
 11 30  1  0
 12 31  1  0
 17 32  1  0
 18 33  1  0
 20 34  1  0
 21 35  1  0
M  END
$$$$
