
     RDKit          3D

 85 87  0  0  0  0  0  0  0  0999 V2000
   -3.0813    2.0571   -0.8568 N   0  0  0  0  0  0  0  0  0  0  0  0
   -2.7533    0.9905    0.0931 C   0  0  1  0  0  0  0  0  0  0  0  0
   -3.9223    0.7991    1.0898 C   0  0  0  0  0  0  0  0  0  0  0  0
   -3.4921    0.2281    2.4629 C   0  0  0  0  0  0  0  0  0  0  0  0
   -2.9004   -1.1850    2.3547 C   0  0  0  0  0  0  0  0  0  0  0  0
   -4.6897    0.2183    3.4222 C   0  0  0  0  0  0  0  0  0  0  0  0
   -2.4496   -0.2739   -0.6729 C   0  0  0  0  0  0  0  0  0  0  0  0
   -3.3798   -0.8813   -1.2712 O   0  0  0  0  0  0  0  0  0  0  0  0
   -1.1011   -0.7578   -0.7573 N   0  0  0  0  0  0  0  0  0  0  0  0
   -0.7423   -1.9820   -1.4766 C   0  0  2  0  0  0  0  0  0  0  0  0
    0.2839   -2.8059   -0.6833 C   0  0  0  0  0  0  0  0  0  0  0  0
    1.5070   -2.8281   -1.4846 N   0  0  0  0  0  0  0  0  0  0  0  0
    1.3736   -2.1291   -2.7534 C   0  0  0  0  0  0  0  0  0  0  0  0
   -0.0209   -1.6391   -2.7324 C   0  0  0  0  0  0  0  0  0  0  0  0
   -0.5282   -1.0177   -3.6529 O   0  0  0  0  0  0  0  0  0  0  0  0
    2.7198   -3.4514   -1.0259 C   0  0  0  0  0  0  0  0  0  0  0  0
    2.7110   -4.0758    0.0706 O   0  0  0  0  0  0  0  0  0  0  0  0
    4.0201   -3.2815   -1.7906 C   0  0  2  0  0  0  0  0  0  0  0  0
    5.1130   -4.3226   -1.4233 C   0  0  0  0  0  0  0  0  0  0  0  0
    5.0054   -5.6948   -2.1390 C   0  0  0  0  0  0  0  0  0  0  0  0
    5.2739   -5.5960   -3.6483 C   0  0  0  0  0  0  0  0  0  0  0  0
    3.6797   -6.4153   -1.8672 C   0  0  0  0  0  0  0  0  0  0  0  0
    4.5312   -1.9210   -1.5890 N   0  0  0  0  0  0  0  0  0  0  0  0
    4.7496   -1.3350   -0.2993 C   0  0  0  0  0  0  0  0  0  0  0  0
    4.7529   -2.0540    0.7371 O   0  0  0  0  0  0  0  0  0  0  0  0
    4.9361    0.0474   -0.2019 O   0  0  0  0  0  0  0  0  0  0  0  0
    4.8685    0.7552    1.0337 C   0  0  0  0  0  0  0  0  0  0  0  0
    3.4430    0.8174    1.5123 C   0  0  0  0  0  0  0  0  0  0  0  0
    2.9930   -0.0366    2.5333 C   0  0  0  0  0  0  0  0  0  0  0  0
    1.6544   -0.0069    2.9367 C   0  0  0  0  0  0  0  0  0  0  0  0
    0.7579    0.8725    2.3245 C   0  0  0  0  0  0  0  0  0  0  0  0
    1.1957    1.7184    1.3019 C   0  0  0  0  0  0  0  0  0  0  0  0
    2.5317    1.6869    0.8908 C   0  0  0  0  0  0  0  0  0  0  0  0
   -2.7963    3.4359   -0.5936 C   0  0  0  0  0  0  0  0  0  0  0  0
   -2.1486    3.7678    0.4375 O   0  0  0  0  0  0  0  0  0  0  0  0
   -3.2482    4.4095   -1.4908 O   0  0  0  0  0  0  0  0  0  0  0  0
   -3.0747    5.8091   -1.2794 C   0  0  0  0  0  0  0  0  0  0  0  0
   -3.9636    6.2847   -0.1625 C   0  0  0  0  0  0  0  0  0  0  0  0
   -3.4153    6.6992    1.0630 C   0  0  0  0  0  0  0  0  0  0  0  0
   -4.2523    7.1158    2.1031 C   0  0  0  0  0  0  0  0  0  0  0  0
   -5.6390    7.1182    1.9285 C   0  0  0  0  0  0  0  0  0  0  0  0
   -6.1914    6.7027    0.7137 C   0  0  0  0  0  0  0  0  0  0  0  0
   -5.3580    6.2852   -0.3287 C   0  0  0  0  0  0  0  0  0  0  0  0
   -3.6793    1.8349   -1.6851 H   0  0  0  0  0  0  0  0  0  0  0  0
   -1.8452    1.2837    0.6617 H   0  0  0  0  0  0  0  0  0  0  0  0
   -4.7218    0.1671    0.6439 H   0  0  0  0  0  0  0  0  0  0  0  0
   -4.3813    1.7960    1.2752 H   0  0  0  0  0  0  0  0  0  0  0  0
   -2.7208    0.8980    2.9022 H   0  0  0  0  0  0  0  0  0  0  0  0
   -2.7319   -1.6130    3.3659 H   0  0  0  0  0  0  0  0  0  0  0  0
   -3.5843   -1.8561    1.7921 H   0  0  0  0  0  0  0  0  0  0  0  0
   -1.9141   -1.1552    1.8490 H   0  0  0  0  0  0  0  0  0  0  0  0
   -5.4934   -0.4464    3.0381 H   0  0  0  0  0  0  0  0  0  0  0  0
   -4.3768   -0.1399    4.4262 H   0  0  0  0  0  0  0  0  0  0  0  0
   -5.0982    1.2448    3.5394 H   0  0  0  0  0  0  0  0  0  0  0  0
   -0.3309   -0.1655   -0.3720 H   0  0  0  0  0  0  0  0  0  0  0  0
   -1.6359   -2.6027   -1.7063 H   0  0  0  0  0  0  0  0  0  0  0  0
    0.4929   -2.3561    0.3127 H   0  0  0  0  0  0  0  0  0  0  0  0
   -0.0851   -3.8447   -0.5398 H   0  0  0  0  0  0  0  0  0  0  0  0
    2.0782   -1.2727   -2.8057 H   0  0  0  0  0  0  0  0  0  0  0  0
    1.5237   -2.8311   -3.6010 H   0  0  0  0  0  0  0  0  0  0  0  0
    3.7932   -3.3910   -2.8694 H   0  0  0  0  0  0  0  0  0  0  0  0
    6.1079   -3.8935   -1.6768 H   0  0  0  0  0  0  0  0  0  0  0  0
    5.1375   -4.4884   -0.3247 H   0  0  0  0  0  0  0  0  0  0  0  0
    5.8116   -6.3338   -1.7142 H   0  0  0  0  0  0  0  0  0  0  0  0
    6.2078   -5.0263   -3.8403 H   0  0  0  0  0  0  0  0  0  0  0  0
    4.4334   -5.1054   -4.1812 H   0  0  0  0  0  0  0  0  0  0  0  0
    5.4004   -6.6143   -4.0740 H   0  0  0  0  0  0  0  0  0  0  0  0
    2.8295   -5.8778   -2.3373 H   0  0  0  0  0  0  0  0  0  0  0  0
    3.7154   -7.4429   -2.2878 H   0  0  0  0  0  0  0  0  0  0  0  0
    3.5055   -6.5002   -0.7740 H   0  0  0  0  0  0  0  0  0  0  0  0
    4.6370   -1.3048   -2.4262 H   0  0  0  0  0  0  0  0  0  0  0  0
    5.5310    0.2764    1.7879 H   0  0  0  0  0  0  0  0  0  0  0  0
    5.2461    1.7873    0.8737 H   0  0  0  0  0  0  0  0  0  0  0  0
    3.6751   -0.7270    3.0134 H   0  0  0  0  0  0  0  0  0  0  0  0
    1.3117   -0.6663    3.7236 H   0  0  0  0  0  0  0  0  0  0  0  0
   -0.2752    0.8963    2.6416 H   0  0  0  0  0  0  0  0  0  0  0  0
    0.4989    2.3939    0.8231 H   0  0  0  0  0  0  0  0  0  0  0  0
    2.8563    2.3374    0.0880 H   0  0  0  0  0  0  0  0  0  0  0  0
   -2.0044    6.0316   -1.0745 H   0  0  0  0  0  0  0  0  0  0  0  0
   -3.3496    6.3459   -2.2118 H   0  0  0  0  0  0  0  0  0  0  0  0
   -2.3432    6.6970    1.2151 H   0  0  0  0  0  0  0  0  0  0  0  0
   -3.8258    7.4347    3.0454 H   0  0  0  0  0  0  0  0  0  0  0  0
   -6.2853    7.4400    2.7348 H   0  0  0  0  0  0  0  0  0  0  0  0
   -7.2655    6.7020    0.5806 H   0  0  0  0  0  0  0  0  0  0  0  0
   -5.7975    5.9598   -1.2636 H   0  0  0  0  0  0  0  0  0  0  0  0
  1  2  1  0
  2  3  1  0
  3  4  1  0
  4  5  1  0
  4  6  1  0
  2  7  1  0
  7  8  2  0
  7  9  1  0
  9 10  1  0
 10 11  1  0
 11 12  1  0
 12 13  1  0
 13 14  1  0
 14 15  2  0
 12 16  1  0
 16 17  2  0
 16 18  1  0
 18 19  1  0
 19 20  1  0
 20 21  1  0
 20 22  1  0
 18 23  1  0
 23 24  1  0
 24 25  2  0
 24 26  1  0
 26 27  1  0
 27 28  1  0
 28 29  2  0
 29 30  1  0
 30 31  2  0
 31 32  1  0
 32 33  2  0
  1 34  1  0
 34 35  2  0
 34 36  1  0
 36 37  1  0
 37 38  1  0
 38 39  2  0
 39 40  1  0
 40 41  2  0
 41 42  1  0
 42 43  2  0
 14 10  1  0
 33 28  1  0
 43 38  1  0
  1 44  1  0
  2 45  1  1
  3 46  1  0
  3 47  1  0
  4 48  1  0
  5 49  1  0
  5 50  1  0
  5 51  1  0
  6 52  1  0
  6 53  1  0
  6 54  1  0
  9 55  1  0
 10 56  1  6
 11 57  1  0
 11 58  1  0
 13 59  1  0
 13 60  1  0
 18 61  1  6
 19 62  1  0
 19 63  1  0
 20 64  1  0
 21 65  1  0
 21 66  1  0
 21 67  1  0
 22 68  1  0
 22 69  1  0
 22 70  1  0
 23 71  1  0
 27 72  1  0
 27 73  1  0
 29 74  1  0
 30 75  1  0
 31 76  1  0
 32 77  1  0
 33 78  1  0
 37 79  1  0
 37 80  1  0
 39 81  1  0
 40 82  1  0
 41 83  1  0
 42 84  1  0
 43 85  1  0
M  END
$$$$
