
     RDKit          3D

 81 84  0  0  0  0  0  0  0  0999 V2000
   -1.5148    1.7881    0.2826 N   0  0  0  0  0  0  0  0  0  0  0  0
   -1.4581    3.1233   -0.1889 C   0  0  0  0  0  0  0  0  0  0  0  0
   -0.3959    3.7970   -0.2484 O   0  0  0  0  0  0  0  0  0  0  0  0
   -2.7873    3.6026   -0.5513 C   0  0  0  0  0  0  0  0  0  0  0  0
   -3.1134    4.9670   -1.0774 C   0  0  0  0  0  0  0  0  0  0  0  0
   -3.6543    2.6100   -0.3237 C   0  0  0  0  0  0  0  0  0  0  0  0
   -5.1475    2.6868   -0.5124 C   0  0  0  0  0  0  0  0  0  0  0  0
   -5.8389    3.0641    0.7931 C   0  0  0  0  0  0  0  0  0  0  0  0
   -2.9020    1.4572    0.2118 C   0  0  0  0  0  0  0  0  0  0  0  0
   -3.4428    0.3020    0.6307 C   0  0  0  0  0  0  0  0  0  0  0  0
   -2.6585   -0.8664    1.0768 C   0  0  0  0  0  0  0  0  0  0  0  0
   -1.4645   -1.1204    0.6489 N   0  0  0  0  0  0  0  0  0  0  0  0
   -1.0804   -2.3564    1.2367 C   0  0  0  0  0  0  0  0  0  0  0  0
    0.0765   -2.9947    1.0032 C   0  0  0  0  0  0  0  0  0  0  0  0
    1.1673   -2.4796    0.1387 C   0  0  0  0  0  0  0  0  0  0  0  0
    2.2058   -3.2466   -0.3775 C   0  0  0  0  0  0  0  0  0  0  0  0
    2.4318   -4.7114   -0.1373 C   0  0  0  0  0  0  0  0  0  0  0  0
    3.0458   -2.3700   -1.0571 C   0  0  0  0  0  0  0  0  0  0  0  0
    4.3784   -2.6821   -1.6924 C   0  0  0  0  0  0  0  0  0  0  0  0
    5.5472   -2.3030   -0.7755 C   0  0  0  0  0  0  0  0  0  0  0  0
    5.5676   -3.1398    0.4661 C   0  0  0  0  0  0  0  0  0  0  0  0
    4.9645   -2.6695    1.6284 O   0  0  0  0  0  0  0  0  0  0  0  0
    6.0935   -4.2847    0.4477 O   0  0  0  0  0  0  0  0  0  0  0  0
    2.4892   -1.1092   -0.9084 C   0  0  0  0  0  0  0  0  0  0  0  0
    3.0249    0.1395   -1.4846 C   0  0  0  0  0  0  0  0  0  0  0  0
    2.9624    1.3289   -0.8675 C   0  0  0  0  0  0  0  0  0  0  0  0
    2.5257    1.5302    0.4765 N   0  0  0  0  0  0  0  0  0  0  0  0
    2.7259    2.9156    0.6962 C   0  0  0  0  0  0  0  0  0  0  0  0
    2.4850    3.4896    1.7907 O   0  0  0  0  0  0  0  0  0  0  0  0
    3.2721    3.5561   -0.4950 C   0  0  0  0  0  0  0  0  0  0  0  0
    3.6212    5.0070   -0.6278 C   0  0  0  0  0  0  0  0  0  0  0  0
    3.4109    2.6158   -1.4358 C   0  0  0  0  0  0  0  0  0  0  0  0
    4.0036    2.8238   -2.8052 C   0  0  0  0  0  0  0  0  0  0  0  0
    5.4943    2.5024   -2.8025 C   0  0  0  0  0  0  0  0  0  0  0  0
    1.3456   -1.1855   -0.2013 N   0  0  0  0  0  0  0  0  0  0  0  0
   -2.1842   -2.8460    2.0626 C   0  0  0  0  0  0  0  0  0  0  0  0
   -2.2574   -4.1771    2.7540 C   0  0  0  0  0  0  0  0  0  0  0  0
   -3.1581   -1.9406    1.9511 C   0  0  0  0  0  0  0  0  0  0  0  0
   -4.5466   -2.0356    2.5344 C   0  0  0  0  0  0  0  0  0  0  0  0
   -5.4484   -2.9730    1.7221 C   0  0  0  0  0  0  0  0  0  0  0  0
   -5.7293   -2.4239    0.3573 C   0  0  0  0  0  0  0  0  0  0  0  0
   -6.7283   -1.4707    0.1864 O   0  0  0  0  0  0  0  0  0  0  0  0
   -5.0364   -2.7942   -0.6279 O   0  0  0  0  0  0  0  0  0  0  0  0
   -0.7559    1.2947    0.8001 H   0  0  0  0  0  0  0  0  0  0  0  0
   -3.8924    5.4405   -0.4441 H   0  0  0  0  0  0  0  0  0  0  0  0
   -3.4841    4.8864   -2.1205 H   0  0  0  0  0  0  0  0  0  0  0  0
   -2.2106    5.6125   -1.0690 H   0  0  0  0  0  0  0  0  0  0  0  0
   -5.4032    3.4356   -1.2920 H   0  0  0  0  0  0  0  0  0  0  0  0
   -5.5319    1.7069   -0.8661 H   0  0  0  0  0  0  0  0  0  0  0  0
   -5.4865    4.0579    1.1426 H   0  0  0  0  0  0  0  0  0  0  0  0
   -6.9363    3.1125    0.6317 H   0  0  0  0  0  0  0  0  0  0  0  0
   -5.6289    2.3059    1.5772 H   0  0  0  0  0  0  0  0  0  0  0  0
   -4.5182    0.2050    0.6340 H   0  0  0  0  0  0  0  0  0  0  0  0
    0.2226   -3.9657    1.4563 H   0  0  0  0  0  0  0  0  0  0  0  0
    1.4623   -5.2496   -0.0996 H   0  0  0  0  0  0  0  0  0  0  0  0
    2.9653   -4.8507    0.8256 H   0  0  0  0  0  0  0  0  0  0  0  0
    3.0270   -5.1648   -0.9541 H   0  0  0  0  0  0  0  0  0  0  0  0
    4.4689   -2.1107   -2.6402 H   0  0  0  0  0  0  0  0  0  0  0  0
    4.4487   -3.7539   -1.9685 H   0  0  0  0  0  0  0  0  0  0  0  0
    5.4826   -1.2281   -0.4997 H   0  0  0  0  0  0  0  0  0  0  0  0
    6.5011   -2.4487   -1.3268 H   0  0  0  0  0  0  0  0  0  0  0  0
    4.9481   -3.2332    2.4698 H   0  0  0  0  0  0  0  0  0  0  0  0
    3.4935    0.0751   -2.4567 H   0  0  0  0  0  0  0  0  0  0  0  0
    2.3385    0.8142    1.2126 H   0  0  0  0  0  0  0  0  0  0  0  0
    4.6801    5.1141   -0.9428 H   0  0  0  0  0  0  0  0  0  0  0  0
    3.4861    5.5293    0.3422 H   0  0  0  0  0  0  0  0  0  0  0  0
    2.9610    5.4823   -1.3829 H   0  0  0  0  0  0  0  0  0  0  0  0
    3.8552    3.8731   -3.1381 H   0  0  0  0  0  0  0  0  0  0  0  0
    3.4851    2.1736   -3.5408 H   0  0  0  0  0  0  0  0  0  0  0  0
    5.6632    1.4448   -2.5073 H   0  0  0  0  0  0  0  0  0  0  0  0
    6.0308    3.1687   -2.0940 H   0  0  0  0  0  0  0  0  0  0  0  0
    5.9096    2.6574   -3.8204 H   0  0  0  0  0  0  0  0  0  0  0  0
    0.7364   -0.3782    0.0394 H   0  0  0  0  0  0  0  0  0  0  0  0
   -1.2891   -4.3998    3.2475 H   0  0  0  0  0  0  0  0  0  0  0  0
   -2.4765   -4.9680    2.0072 H   0  0  0  0  0  0  0  0  0  0  0  0
   -3.0433   -4.1892    3.5353 H   0  0  0  0  0  0  0  0  0  0  0  0
   -5.0075   -1.0267    2.5920 H   0  0  0  0  0  0  0  0  0  0  0  0
   -4.4851   -2.4038    3.5798 H   0  0  0  0  0  0  0  0  0  0  0  0
   -4.9825   -3.9786    1.6383 H   0  0  0  0  0  0  0  0  0  0  0  0
   -6.4128   -3.0973    2.2594 H   0  0  0  0  0  0  0  0  0  0  0  0
   -6.9133   -1.0701   -0.7254 H   0  0  0  0  0  0  0  0  0  0  0  0
  1  2  1  0
  2  3  2  0
  2  4  1  0
  4  5  1  0
  4  6  2  0
  6  7  1  0
  7  8  1  0
  6  9  1  0
  9 10  2  0
 10 11  1  0
 11 12  2  0
 12 13  1  0
 13 14  2  0
 14 15  1  0
 15 16  2  0
 16 17  1  0
 16 18  1  0
 18 19  1  0
 19 20  1  0
 20 21  1  0
 21 22  1  0
 21 23  2  0
 18 24  2  0
 24 25  1  0
 25 26  2  0
 26 27  1  0
 27 28  1  0
 28 29  2  0
 28 30  1  0
 30 31  1  0
 30 32  2  0
 32 33  1  0
 33 34  1  0
 24 35  1  0
 13 36  1  0
 36 37  1  0
 36 38  2  0
 38 39  1  0
 39 40  1  0
 40 41  1  0
 41 42  1  0
 41 43  2  0
  9  1  1  0
 38 11  1  0
 35 15  1  0
 32 26  1  0
  1 44  1  0
  5 45  1  0
  5 46  1  0
  5 47  1  0
  7 48  1  0
  7 49  1  0
  8 50  1  0
  8 51  1  0
  8 52  1  0
 10 53  1  0
 14 54  1  0
 17 55  1  0
 17 56  1  0
 17 57  1  0
 19 58  1  0
 19 59  1  0
 20 60  1  0
 20 61  1  0
 22 62  1  0
 25 63  1  0
 27 64  1  0
 31 65  1  0
 31 66  1  0
 31 67  1  0
 33 68  1  0
 33 69  1  0
 34 70  1  0
 34 71  1  0
 34 72  1  0
 35 73  1  0
 37 74  1  0
 37 75  1  0
 37 76  1  0
 39 77  1  0
 39 78  1  0
 40 79  1  0
 40 80  1  0
 42 81  1  0
M  END
$$$$
