
     RDKit          3D

 37 38  0  0  0  0  0  0  0  0999 V2000
   -0.1048    2.1116   -1.6208 N   0  0  0  0  0  0  0  0  0  0  0  0
   -0.6019    1.3657   -0.4617 C   0  0  1  0  0  0  0  0  0  0  0  0
   -0.9376   -0.0989   -0.8412 C   0  0  0  0  0  0  0  0  0  0  0  0
   -1.4012   -0.9792    0.3389 C   0  0  0  0  0  0  0  0  0  0  0  0
   -2.7150   -0.5206    0.9924 C   0  0  0  0  0  0  0  0  0  0  0  0
   -3.8504   -0.6318    0.0728 N   0  0  0  0  0  0  0  0  0  0  0  0
   -5.1836   -0.2085    0.4094 C   0  0  0  0  0  0  0  0  0  0  0  0
   -6.2194   -0.3139   -0.5675 N   0  0  0  0  0  0  0  0  0  0  0  0
   -5.4711    0.2634    1.5834 N   0  0  0  0  0  0  0  0  0  0  0  0
    0.3840    1.4720    0.6809 C   0  0  0  0  0  0  0  0  0  0  0  0
    0.0201    2.0514    1.7397 O   0  0  0  0  0  0  0  0  0  0  0  0
    1.7522    0.9232    0.6080 C   0  0  0  0  0  0  0  0  0  0  0  0
    2.2606    0.2935   -0.4807 N   0  0  0  0  0  0  0  0  0  0  0  0
    3.5372   -0.1120   -0.2629 C   0  0  0  0  0  0  0  0  0  0  0  0
    4.3209   -0.7881   -1.1994 C   0  0  0  0  0  0  0  0  0  0  0  0
    5.6315   -1.1532   -0.8450 C   0  0  0  0  0  0  0  0  0  0  0  0
    6.1393   -0.8406    0.4321 C   0  0  0  0  0  0  0  0  0  0  0  0
    5.3412   -0.1603    1.3659 C   0  0  0  0  0  0  0  0  0  0  0  0
    4.0471    0.1897    0.9893 C   0  0  0  0  0  0  0  0  0  0  0  0
    2.8749    0.9952    1.8778 S   0  0  0  0  0  0  0  0  0  0  0  0
    0.6649    1.5793   -2.0864 H   0  0  0  0  0  0  0  0  0  0  0  0
   -0.8794    2.1949   -2.3191 H   0  0  0  0  0  0  0  0  0  0  0  0
   -1.5475    1.8572   -0.1431 H   0  0  0  0  0  0  0  0  0  0  0  0
   -0.0472   -0.5816   -1.2959 H   0  0  0  0  0  0  0  0  0  0  0  0
   -1.7205   -0.0928   -1.6288 H   0  0  0  0  0  0  0  0  0  0  0  0
   -0.6057   -1.0123    1.1137 H   0  0  0  0  0  0  0  0  0  0  0  0
   -1.5311   -2.0212   -0.0264 H   0  0  0  0  0  0  0  0  0  0  0  0
   -2.6173    0.5242    1.3521 H   0  0  0  0  0  0  0  0  0  0  0  0
   -2.9070   -1.1655    1.8768 H   0  0  0  0  0  0  0  0  0  0  0  0
   -3.7055   -1.0554   -0.8713 H   0  0  0  0  0  0  0  0  0  0  0  0
   -6.0155   -0.6894   -1.5200 H   0  0  0  0  0  0  0  0  0  0  0  0
   -7.1943   -0.0146   -0.3421 H   0  0  0  0  0  0  0  0  0  0  0  0
   -4.7724    0.3664    2.3509 H   0  0  0  0  0  0  0  0  0  0  0  0
    3.9292   -1.0277   -2.1798 H   0  0  0  0  0  0  0  0  0  0  0  0
    6.2544   -1.6779   -1.5577 H   0  0  0  0  0  0  0  0  0  0  0  0
    7.1495   -1.1263    0.6948 H   0  0  0  0  0  0  0  0  0  0  0  0
    5.7216    0.0841    2.3491 H   0  0  0  0  0  0  0  0  0  0  0  0
  1  2  1  0
  2  3  1  0
  3  4  1  0
  4  5  1  0
  5  6  1  0
  6  7  1  0
  7  8  1  0
  7  9  2  3
  2 10  1  0
 10 11  2  0
 10 12  1  0
 12 13  2  0
 13 14  1  0
 14 15  2  0
 15 16  1  0
 16 17  2  0
 17 18  1  0
 18 19  2  0
 19 20  1  0
 20 12  1  0
 19 14  1  0
  1 21  1  0
  1 22  1  0
  2 23  1  1
  3 24  1  0
  3 25  1  0
  4 26  1  0
  4 27  1  0
  5 28  1  0
  5 29  1  0
  6 30  1  0
  8 31  1  0
  8 32  1  0
  9 33  1  0
 15 34  1  0
 16 35  1  0
 17 36  1  0
 18 37  1  0
M  END
$$$$
