
     RDKit          3D

 59 62  0  0  0  0  0  0  0  0999 V2000
   -5.9347    4.0267   -1.3555 N   0  0  0  0  0  0  0  0  0  0  0  0
   -5.0869    3.0006   -0.8393 C   0  0  0  0  0  0  0  0  0  0  0  0
   -5.4294    1.6557   -0.9233 C   0  0  0  0  0  0  0  0  0  0  0  0
   -6.5152    1.0813   -1.4745 N   0  0  0  0  0  0  0  0  0  0  0  0
   -6.2853   -0.2465   -1.2772 C   0  0  0  0  0  0  0  0  0  0  0  0
   -5.1208   -0.5020   -0.6264 N   0  0  0  0  0  0  0  0  0  0  0  0
   -4.5381   -1.8154   -0.3394 C   0  0  2  0  0  0  0  0  0  0  0  0
   -3.9305   -1.7985    0.9370 O   0  0  0  0  0  0  0  0  0  0  0  0
   -2.6314   -2.3274    0.7993 C   0  0  2  0  0  0  0  0  0  0  0  0
   -1.6899   -1.6511    1.8002 C   0  0  0  0  0  0  0  0  0  0  0  0
   -0.4009   -2.2049    1.6776 O   0  0  0  0  0  0  0  0  0  0  0  0
    0.6699   -1.2947    2.6445 P   0  0  1  0  0  5  0  0  0  0  0  0
    0.1311   -1.3019    4.2494 O   0  0  0  0  0  0  0  0  0  0  0  0
    2.0451   -1.9230    2.5951 O   0  0  0  0  0  0  0  0  0  0  0  0
    0.7562    0.3179    2.1058 O   0  0  0  0  0  0  0  0  0  0  0  0
    1.1939    0.3238    0.4540 P   0  0  1  0  0  5  0  0  0  0  0  0
    1.5030   -1.2213   -0.1770 O   0  0  0  0  0  0  0  0  0  0  0  0
    0.0627    0.9438   -0.3334 O   0  0  0  0  0  0  0  0  0  0  0  0
    2.5799    1.2937    0.2487 O   0  0  0  0  0  0  0  0  0  0  0  0
    3.6159    0.7527    1.0347 C   0  0  0  0  0  0  0  0  0  0  0  0
    4.9056    1.5496    0.8007 C   0  0  1  0  0  0  0  0  0  0  0  0
    5.8948    1.1027    1.7061 O   0  0  0  0  0  0  0  0  0  0  0  0
    6.9220    0.4759    0.9655 C   0  0  2  0  0  0  0  0  0  0  0  0
    8.1096    1.2207    1.0709 O   0  0  0  0  0  0  0  0  0  0  0  0
    6.4736    0.3231   -0.4866 C   0  0  2  0  0  0  0  0  0  0  0  0
    7.5274    0.4914   -1.4007 O   0  0  0  0  0  0  0  0  0  0  0  0
    5.4252    1.3933   -0.6339 C   0  0  2  0  0  0  0  0  0  0  0  0
    6.0062    2.5960   -1.0720 O   0  0  0  0  0  0  0  0  0  0  0  0
   -2.1858   -2.1205   -0.6429 C   0  0  1  0  0  0  0  0  0  0  0  0
   -1.2811   -3.1181   -1.0413 O   0  0  0  0  0  0  0  0  0  0  0  0
   -3.4930   -2.1860   -1.4021 C   0  0  1  0  0  0  0  0  0  0  0  0
   -3.7379   -3.4671   -1.9369 O   0  0  0  0  0  0  0  0  0  0  0  0
   -4.5957    0.7145   -0.4254 C   0  0  0  0  0  0  0  0  0  0  0  0
   -3.4130    1.0227    0.1591 N   0  0  0  0  0  0  0  0  0  0  0  0
   -3.0664    2.3417    0.2504 C   0  0  0  0  0  0  0  0  0  0  0  0
   -3.8971    3.3151   -0.2445 N   0  0  0  0  0  0  0  0  0  0  0  0
   -6.8444    3.7936   -1.8122 H   0  0  0  0  0  0  0  0  0  0  0  0
   -5.6508    5.0286   -1.2804 H   0  0  0  0  0  0  0  0  0  0  0  0
   -6.9610   -1.0198   -1.6195 H   0  0  0  0  0  0  0  0  0  0  0  0
   -5.3554   -2.5709   -0.3223 H   0  0  0  0  0  0  0  0  0  0  0  0
   -2.6720   -3.4167    1.0305 H   0  0  0  0  0  0  0  0  0  0  0  0
   -2.0849   -1.8306    2.8251 H   0  0  0  0  0  0  0  0  0  0  0  0
   -1.6885   -0.5555    1.6001 H   0  0  0  0  0  0  0  0  0  0  0  0
    0.0547   -2.2607    4.4861 H   0  0  0  0  0  0  0  0  0  0  0  0
    1.7876   -1.0608   -1.1118 H   0  0  0  0  0  0  0  0  0  0  0  0
    3.3560    0.8287    2.1149 H   0  0  0  0  0  0  0  0  0  0  0  0
    3.8062   -0.3154    0.7790 H   0  0  0  0  0  0  0  0  0  0  0  0
    4.6909    2.6202    1.0155 H   0  0  0  0  0  0  0  0  0  0  0  0
    7.1079   -0.5313    1.3958 H   0  0  0  0  0  0  0  0  0  0  0  0
    7.8897    2.1620    0.8451 H   0  0  0  0  0  0  0  0  0  0  0  0
    5.9948   -0.6748   -0.6296 H   0  0  0  0  0  0  0  0  0  0  0  0
    8.0851   -0.3273   -1.3374 H   0  0  0  0  0  0  0  0  0  0  0  0
    4.6380    1.0655   -1.3536 H   0  0  0  0  0  0  0  0  0  0  0  0
    5.2570    3.1898   -1.3398 H   0  0  0  0  0  0  0  0  0  0  0  0
   -1.7335   -1.1087   -0.7693 H   0  0  0  0  0  0  0  0  0  0  0  0
   -0.9089   -2.8257   -1.9138 H   0  0  0  0  0  0  0  0  0  0  0  0
   -3.4806   -1.4550   -2.2409 H   0  0  0  0  0  0  0  0  0  0  0  0
   -3.7470   -4.1194   -1.1876 H   0  0  0  0  0  0  0  0  0  0  0  0
   -2.1303    2.6194    0.7149 H   0  0  0  0  0  0  0  0  0  0  0  0
  1  2  1  0
  2  3  2  0
  3  4  1  0
  4  5  2  0
  5  6  1  0
  6  7  1  0
  7  8  1  0
  8  9  1  0
  9 10  1  0
 10 11  1  0
 12 11  1  6
 12 13  1  0
 12 14  2  0
 12 15  1  0
 16 15  1  1
 16 17  1  0
 16 18  2  0
 16 19  1  0
 19 20  1  0
 20 21  1  0
 21 22  1  0
 22 23  1  0
 23 24  1  0
 23 25  1  0
 25 26  1  0
 25 27  1  0
 27 28  1  0
  9 29  1  0
 29 30  1  0
 29 31  1  0
 31 32  1  0
  6 33  1  0
 33 34  2  0
 34 35  1  0
 35 36  2  0
 36  2  1  0
 33  3  1  0
 31  7  1  0
 27 21  1  0
  1 37  1  0
  1 38  1  0
  5 39  1  0
  7 40  1  1
  9 41  1  1
 10 42  1  0
 10 43  1  0
 13 44  1  0
 17 45  1  0
 20 46  1  0
 20 47  1  0
 21 48  1  1
 23 49  1  1
 24 50  1  0
 25 51  1  1
 26 52  1  0
 27 53  1  6
 28 54  1  0
 29 55  1  1
 30 56  1  0
 31 57  1  6
 32 58  1  0
 35 59  1  0
M  END
$$$$
