
     RDKit          3D

 61 60  0  0  0  0  0  0  0  0999 V2000
    7.6161   -0.4563    2.8018 C   0  0  0  0  0  0  0  0  0  0  0  0
    6.3466    0.3371    3.1114 C   0  0  0  0  0  0  0  0  0  0  0  0
    5.2670    0.1809    2.0290 C   0  0  0  0  0  0  0  0  0  0  0  0
    4.5847   -1.1969    2.0727 C   0  0  0  0  0  0  0  0  0  0  0  0
    3.5508   -1.3873    0.9481 C   0  0  0  0  0  0  0  0  0  0  0  0
    2.3545   -0.4155    0.9860 C   0  0  0  0  0  0  0  0  0  0  0  0
    1.5511   -0.4194    2.3020 C   0  0  0  0  0  0  0  0  0  0  0  0
    0.9733   -1.7887    2.6937 C   0  0  0  0  0  0  0  0  0  0  0  0
   -0.0838   -2.5267    1.3903 S   0  0  0  0  0  0  0  0  0  0  0  0
   -1.5321   -1.4162    1.5798 C   0  0  0  0  0  0  0  0  0  0  0  0
   -1.6461   -0.4483    0.3907 C   0  0  2  0  0  0  0  0  0  0  0  0
   -2.7617    0.4760    0.6019 N   0  0  0  0  0  0  0  0  0  0  0  0
   -2.7434    1.8253    0.1113 C   0  0  0  0  0  0  0  0  0  0  0  0
   -1.6933    2.3059   -0.3957 O   0  0  0  0  0  0  0  0  0  0  0  0
   -3.9810    2.6722    0.1773 C   0  0  0  0  0  0  0  0  0  0  0  0
   -4.5967    2.9119   -1.2111 C   0  0  0  0  0  0  0  0  0  0  0  0
   -5.2444    1.6490   -1.8180 C   0  0  2  0  0  0  0  0  0  0  0  0
   -4.2223    0.6817   -2.2243 N   0  0  0  0  0  0  0  0  0  0  0  0
   -6.1153    2.0160   -2.9909 C   0  0  0  0  0  0  0  0  0  0  0  0
   -7.4737    1.7161   -2.9638 O   0  0  0  0  0  0  0  0  0  0  0  0
   -5.6197    2.5903   -3.9981 O   0  0  0  0  0  0  0  0  0  0  0  0
   -1.8532   -1.1808   -0.9093 C   0  0  0  0  0  0  0  0  0  0  0  0
   -2.7649   -2.0483   -1.0011 O   0  0  0  0  0  0  0  0  0  0  0  0
   -1.0531   -0.8557   -2.0536 N   0  0  0  0  0  0  0  0  0  0  0  0
   -1.2633   -1.5156   -3.3405 C   0  0  0  0  0  0  0  0  0  0  0  0
   -0.3216   -0.9750   -4.3688 C   0  0  0  0  0  0  0  0  0  0  0  0
    0.9394   -1.5426   -4.5197 O   0  0  0  0  0  0  0  0  0  0  0  0
   -0.6525    0.0212   -5.0658 O   0  0  0  0  0  0  0  0  0  0  0  0
    8.0013   -0.1966    1.7929 H   0  0  0  0  0  0  0  0  0  0  0  0
    8.3970   -0.2081    3.5512 H   0  0  0  0  0  0  0  0  0  0  0  0
    7.4239   -1.5475    2.8551 H   0  0  0  0  0  0  0  0  0  0  0  0
    5.9452    0.0289    4.1013 H   0  0  0  0  0  0  0  0  0  0  0  0
    6.6202    1.4124    3.1809 H   0  0  0  0  0  0  0  0  0  0  0  0
    4.5045    0.9685    2.2060 H   0  0  0  0  0  0  0  0  0  0  0  0
    5.7103    0.3567    1.0244 H   0  0  0  0  0  0  0  0  0  0  0  0
    5.3519   -1.9893    1.9482 H   0  0  0  0  0  0  0  0  0  0  0  0
    4.1110   -1.3574    3.0639 H   0  0  0  0  0  0  0  0  0  0  0  0
    3.1745   -2.4319    0.9812 H   0  0  0  0  0  0  0  0  0  0  0  0
    4.0639   -1.2716   -0.0315 H   0  0  0  0  0  0  0  0  0  0  0  0
    2.7111    0.6175    0.7901 H   0  0  0  0  0  0  0  0  0  0  0  0
    1.6771   -0.6650    0.1420 H   0  0  0  0  0  0  0  0  0  0  0  0
    2.1922   -0.0504    3.1299 H   0  0  0  0  0  0  0  0  0  0  0  0
    0.7224    0.3129    2.2134 H   0  0  0  0  0  0  0  0  0  0  0  0
    1.8013   -2.4943    2.9106 H   0  0  0  0  0  0  0  0  0  0  0  0
    0.3909   -1.6896    3.6341 H   0  0  0  0  0  0  0  0  0  0  0  0
   -2.4448   -2.0463    1.6441 H   0  0  0  0  0  0  0  0  0  0  0  0
   -1.4739   -0.8351    2.5241 H   0  0  0  0  0  0  0  0  0  0  0  0
   -0.6979    0.1261    0.3396 H   0  0  0  0  0  0  0  0  0  0  0  0
   -3.6630    0.0918    0.9671 H   0  0  0  0  0  0  0  0  0  0  0  0
   -4.7340    2.2114    0.8523 H   0  0  0  0  0  0  0  0  0  0  0  0
   -3.7069    3.6544    0.6192 H   0  0  0  0  0  0  0  0  0  0  0  0
   -5.3810    3.6924   -1.0933 H   0  0  0  0  0  0  0  0  0  0  0  0
   -3.8280    3.3231   -1.9026 H   0  0  0  0  0  0  0  0  0  0  0  0
   -5.8897    1.1767   -1.0441 H   0  0  0  0  0  0  0  0  0  0  0  0
   -3.6471    1.0805   -3.0023 H   0  0  0  0  0  0  0  0  0  0  0  0
   -4.6960   -0.1765   -2.5899 H   0  0  0  0  0  0  0  0  0  0  0  0
   -8.0740    1.9546   -3.7441 H   0  0  0  0  0  0  0  0  0  0  0  0
   -0.3147   -0.1208   -1.9599 H   0  0  0  0  0  0  0  0  0  0  0  0
   -1.0944   -2.6080   -3.2284 H   0  0  0  0  0  0  0  0  0  0  0  0
   -2.3107   -1.3532   -3.6755 H   0  0  0  0  0  0  0  0  0  0  0  0
    1.5960   -1.1764   -5.1987 H   0  0  0  0  0  0  0  0  0  0  0  0
  1  2  1  0
  2  3  1  0
  3  4  1  0
  4  5  1  0
  5  6  1  0
  6  7  1  0
  7  8  1  0
  8  9  1  0
  9 10  1  0
 10 11  1  0
 11 12  1  0
 12 13  1  0
 13 14  2  0
 13 15  1  0
 15 16  1  0
 16 17  1  0
 17 18  1  0
 17 19  1  0
 19 20  1  0
 19 21  2  0
 11 22  1  0
 22 23  2  0
 22 24  1  0
 24 25  1  0
 25 26  1  0
 26 27  1  0
 26 28  2  0
  1 29  1  0
  1 30  1  0
  1 31  1  0
  2 32  1  0
  2 33  1  0
  3 34  1  0
  3 35  1  0
  4 36  1  0
  4 37  1  0
  5 38  1  0
  5 39  1  0
  6 40  1  0
  6 41  1  0
  7 42  1  0
  7 43  1  0
  8 44  1  0
  8 45  1  0
 10 46  1  0
 10 47  1  0
 11 48  1  6
 12 49  1  0
 15 50  1  0
 15 51  1  0
 16 52  1  0
 16 53  1  0
 17 54  1  1
 18 55  1  0
 18 56  1  0
 20 57  1  0
 24 58  1  0
 25 59  1  0
 25 60  1  0
 27 61  1  0
M  END
$$$$
