
     RDKit          3D

 38 40  0  0  0  0  0  0  0  0999 V2000
    5.4894    1.6265    0.0305 C   0  0  0  0  0  0  0  0  0  0  0  0
    4.7462    0.4312    0.2437 O   0  0  0  0  0  0  0  0  0  0  0  0
    3.3468    0.2782    0.1688 C   0  0  0  0  0  0  0  0  0  0  0  0
    2.8196   -0.9653    0.5676 C   0  0  0  0  0  0  0  0  0  0  0  0
    3.6855   -1.9680    1.0087 O   0  0  0  0  0  0  0  0  0  0  0  0
    1.4283   -1.2007    0.5210 C   0  0  0  0  0  0  0  0  0  0  0  0
    0.8300   -2.4286    0.8673 O   0  0  0  0  0  0  0  0  0  0  0  0
    1.5008   -3.6171    1.2712 C   0  0  0  0  0  0  0  0  0  0  0  0
    0.5688   -0.1707    0.1269 C   0  0  0  0  0  0  0  0  0  0  0  0
   -0.7407   -0.4082    0.1221 O   0  0  0  0  0  0  0  0  0  0  0  0
   -1.6509    0.5028   -0.2019 C   0  0  0  0  0  0  0  0  0  0  0  0
   -1.2426    1.8031   -0.5131 C   0  0  0  0  0  0  0  0  0  0  0  0
    0.1171    2.1117   -0.5175 C   0  0  0  0  0  0  0  0  0  0  0  0
    0.4539    3.3083   -0.7167 O   0  0  0  0  0  0  0  0  0  0  0  0
    1.0710    1.0985   -0.2494 C   0  0  0  0  0  0  0  0  0  0  0  0
    2.4784    1.2963   -0.2996 C   0  0  0  0  0  0  0  0  0  0  0  0
    3.0359    2.4542   -0.8473 O   0  0  0  0  0  0  0  0  0  0  0  0
   -3.0823    0.1232   -0.1771 C   0  0  0  0  0  0  0  0  0  0  0  0
   -3.5411   -0.7217    0.8488 C   0  0  0  0  0  0  0  0  0  0  0  0
   -4.8845   -1.1000    0.9101 C   0  0  0  0  0  0  0  0  0  0  0  0
   -5.7835   -0.6486   -0.0568 C   0  0  0  0  0  0  0  0  0  0  0  0
   -5.3393    0.1731   -1.0945 C   0  0  0  0  0  0  0  0  0  0  0  0
   -3.9910    0.5543   -1.1703 C   0  0  0  0  0  0  0  0  0  0  0  0
   -3.5549    1.3331   -2.2422 O   0  0  0  0  0  0  0  0  0  0  0  0
    6.5498    1.4402    0.2972 H   0  0  0  0  0  0  0  0  0  0  0  0
    5.1056    2.4413    0.6802 H   0  0  0  0  0  0  0  0  0  0  0  0
    5.4527    1.9170   -1.0401 H   0  0  0  0  0  0  0  0  0  0  0  0
    4.6898   -1.8489    1.0600 H   0  0  0  0  0  0  0  0  0  0  0  0
    0.7473   -4.4132    1.4407 H   0  0  0  0  0  0  0  0  0  0  0  0
    2.1926   -3.9590    0.4729 H   0  0  0  0  0  0  0  0  0  0  0  0
    2.0438   -3.4473    2.2245 H   0  0  0  0  0  0  0  0  0  0  0  0
   -1.9710    2.5822   -0.7035 H   0  0  0  0  0  0  0  0  0  0  0  0
    2.5751    3.0355   -1.5328 H   0  0  0  0  0  0  0  0  0  0  0  0
   -2.8606   -1.0766    1.6135 H   0  0  0  0  0  0  0  0  0  0  0  0
   -5.2292   -1.7426    1.7100 H   0  0  0  0  0  0  0  0  0  0  0  0
   -6.8240   -0.9424   -0.0068 H   0  0  0  0  0  0  0  0  0  0  0  0
   -6.0421    0.5040   -1.8485 H   0  0  0  0  0  0  0  0  0  0  0  0
   -4.1906    1.6442   -2.9674 H   0  0  0  0  0  0  0  0  0  0  0  0
  1  2  1  0
  2  3  1  0
  3  4  2  0
  4  5  1  0
  4  6  1  0
  6  7  1  0
  7  8  1  0
  6  9  2  0
  9 10  1  0
 10 11  1  0
 11 12  2  0
 12 13  1  0
 13 14  2  0
 13 15  1  0
 15 16  2  0
 16 17  1  0
 11 18  1  0
 18 19  2  0
 19 20  1  0
 20 21  2  0
 21 22  1  0
 22 23  2  0
 23 24  1  0
 16  3  1  0
 23 18  1  0
 15  9  1  0
  1 25  1  0
  1 26  1  0
  1 27  1  0
  5 28  1  0
  8 29  1  0
  8 30  1  0
  8 31  1  0
 12 32  1  0
 17 33  1  0
 19 34  1  0
 20 35  1  0
 21 36  1  0
 22 37  1  0
 24 38  1  0
M  END
$$$$
