
     RDKit          3D

 60 62  0  0  0  0  0  0  0  0999 V2000
   -2.5555    1.6602   -0.7086 C   0  0  1  0  0  0  0  0  0  0  0  0
   -2.0144    2.9177   -0.0058 C   0  0  0  0  0  0  0  0  0  0  0  0
   -2.1656    1.6462   -2.2096 C   0  0  0  0  0  0  0  0  0  0  0  0
   -2.8958    2.7169   -3.0218 C   0  0  0  0  0  0  0  0  0  0  0  0
   -2.0857    0.3819    0.0431 C   0  0  2  0  0  0  0  0  0  0  0  0
   -0.6381    0.1783   -0.1128 N   0  0  0  0  0  0  0  0  0  0  0  0
    0.3093    0.4515    0.9299 C   0  0  0  0  0  0  0  0  0  0  0  0
   -0.0720    0.8858    2.0502 O   0  0  0  0  0  0  0  0  0  0  0  0
    1.7687    0.2600    0.6759 C   0  0  1  0  0  0  0  0  0  0  0  0
    2.3652   -0.5302    1.6783 O   0  0  0  0  0  0  0  0  0  0  0  0
    2.1905   -1.1374    0.4186 C   0  0  2  0  0  0  0  0  0  0  0  0
    3.4928   -1.2914   -0.2963 C   0  0  0  0  0  0  0  0  0  0  0  0
    3.5989   -0.8796   -1.4829 O   0  0  0  0  0  0  0  0  0  0  0  0
    4.5981   -1.9346    0.3520 N   0  0  0  0  0  0  0  0  0  0  0  0
    5.9205   -2.0274   -0.2614 C   0  0  0  0  0  0  0  0  0  0  0  0
    6.5867   -0.6784   -0.2659 C   0  0  0  0  0  0  0  0  0  0  0  0
    7.0356   -0.1132    0.9391 C   0  0  0  0  0  0  0  0  0  0  0  0
    7.6324    1.1514    0.9447 C   0  0  0  0  0  0  0  0  0  0  0  0
    7.7808    1.8611   -0.2501 C   0  0  0  0  0  0  0  0  0  0  0  0
    7.3312    1.3079   -1.4523 C   0  0  0  0  0  0  0  0  0  0  0  0
    6.7339    0.0435   -1.4624 C   0  0  0  0  0  0  0  0  0  0  0  0
   -2.8469   -0.8450   -0.4198 C   0  0  0  0  0  0  0  0  0  0  0  0
   -2.3530   -1.5727   -1.3249 O   0  0  0  0  0  0  0  0  0  0  0  0
   -4.1493   -1.1712    0.1073 N   0  0  0  0  0  0  0  0  0  0  0  0
   -5.0026   -2.1757   -0.5079 C   0  0  0  0  0  0  0  0  0  0  0  0
   -6.2438   -2.2635    0.3708 C   0  0  0  0  0  0  0  0  0  0  0  0
   -6.2333   -1.0017    1.2283 C   0  0  0  0  0  0  0  0  0  0  0  0
   -4.7771   -0.5373    1.2612 C   0  0  1  0  0  0  0  0  0  0  0  0
   -4.1031   -0.9796    2.5305 C   0  0  0  0  0  0  0  0  0  0  0  0
   -3.7293   -2.3101    2.6978 O   0  0  0  0  0  0  0  0  0  0  0  0
   -3.9059   -0.1508    3.4589 O   0  0  0  0  0  0  0  0  0  0  0  0
   -3.6653    1.7011   -0.6402 H   0  0  0  0  0  0  0  0  0  0  0  0
   -0.9123    2.9923   -0.1229 H   0  0  0  0  0  0  0  0  0  0  0  0
   -2.4830    3.8327   -0.4223 H   0  0  0  0  0  0  0  0  0  0  0  0
   -2.2573    2.8904    1.0779 H   0  0  0  0  0  0  0  0  0  0  0  0
   -2.4244    0.6638   -2.6566 H   0  0  0  0  0  0  0  0  0  0  0  0
   -1.0698    1.7916   -2.3269 H   0  0  0  0  0  0  0  0  0  0  0  0
   -2.6728    2.5770   -4.1006 H   0  0  0  0  0  0  0  0  0  0  0  0
   -3.9939    2.6351   -2.8766 H   0  0  0  0  0  0  0  0  0  0  0  0
   -2.5572    3.7328   -2.7322 H   0  0  0  0  0  0  0  0  0  0  0  0
   -2.3121    0.5144    1.1200 H   0  0  0  0  0  0  0  0  0  0  0  0
   -0.2646   -0.1131   -1.0447 H   0  0  0  0  0  0  0  0  0  0  0  0
    2.4172    1.1096    0.3733 H   0  0  0  0  0  0  0  0  0  0  0  0
    1.4511   -1.9657    0.4543 H   0  0  0  0  0  0  0  0  0  0  0  0
    4.4599   -2.3430    1.3041 H   0  0  0  0  0  0  0  0  0  0  0  0
    5.8304   -2.4416   -1.2893 H   0  0  0  0  0  0  0  0  0  0  0  0
    6.5473   -2.7364    0.3219 H   0  0  0  0  0  0  0  0  0  0  0  0
    6.9202   -0.6512    1.8720 H   0  0  0  0  0  0  0  0  0  0  0  0
    7.9776    1.5822    1.8756 H   0  0  0  0  0  0  0  0  0  0  0  0
    8.2419    2.8403   -0.2441 H   0  0  0  0  0  0  0  0  0  0  0  0
    7.4435    1.8600   -2.3765 H   0  0  0  0  0  0  0  0  0  0  0  0
    6.3851   -0.3696   -2.4006 H   0  0  0  0  0  0  0  0  0  0  0  0
   -5.2769   -1.8517   -1.5353 H   0  0  0  0  0  0  0  0  0  0  0  0
   -4.4814   -3.1569   -0.5468 H   0  0  0  0  0  0  0  0  0  0  0  0
   -6.1733   -3.1578    1.0285 H   0  0  0  0  0  0  0  0  0  0  0  0
   -7.1703   -2.3307   -0.2398 H   0  0  0  0  0  0  0  0  0  0  0  0
   -6.6541   -1.1944    2.2403 H   0  0  0  0  0  0  0  0  0  0  0  0
   -6.8540   -0.2230    0.7323 H   0  0  0  0  0  0  0  0  0  0  0  0
   -4.7401    0.5698    1.1678 H   0  0  0  0  0  0  0  0  0  0  0  0
   -3.2847   -2.6211    3.5531 H   0  0  0  0  0  0  0  0  0  0  0  0
  1  2  1  0
  1  3  1  0
  3  4  1  0
  1  5  1  0
  5  6  1  0
  6  7  1  0
  7  8  2  0
  7  9  1  0
  9 10  1  0
 10 11  1  0
 11 12  1  0
 12 13  2  0
 12 14  1  0
 14 15  1  0
 15 16  1  0
 16 17  2  0
 17 18  1  0
 18 19  2  0
 19 20  1  0
 20 21  2  0
  5 22  1  0
 22 23  2  0
 22 24  1  0
 24 25  1  0
 25 26  1  0
 26 27  1  0
 27 28  1  0
 28 29  1  0
 29 30  1  0
 29 31  2  0
 11  9  1  0
 21 16  1  0
 28 24  1  0
  1 32  1  6
  2 33  1  0
  2 34  1  0
  2 35  1  0
  3 36  1  0
  3 37  1  0
  4 38  1  0
  4 39  1  0
  4 40  1  0
  5 41  1  1
  6 42  1  0
  9 43  1  6
 11 44  1  1
 14 45  1  0
 15 46  1  0
 15 47  1  0
 17 48  1  0
 18 49  1  0
 19 50  1  0
 20 51  1  0
 21 52  1  0
 25 53  1  0
 25 54  1  0
 26 55  1  0
 26 56  1  0
 27 57  1  0
 27 58  1  0
 28 59  1  6
 30 60  1  0
M  END
$$$$
