
     RDKit          3D

 81 84  0  0  0  0  0  0  0  0999 V2000
    8.4214   -2.5572   -0.1584 C   0  0  0  0  0  0  0  0  0  0  0  0
    9.2809   -2.3664   -1.4062 C   0  0  0  0  0  0  0  0  0  0  0  0
    9.2543   -0.9253   -1.9427 C   0  0  0  0  0  0  0  0  0  0  0  0
    7.8790   -0.4981   -2.4975 C   0  0  0  0  0  0  0  0  0  0  0  0
    7.1021    0.3851   -1.5093 C   0  0  0  0  0  0  0  0  0  0  0  0
    5.7131    0.7381   -2.0625 C   0  0  0  0  0  0  0  0  0  0  0  0
    4.9481    1.7231   -1.1636 C   0  0  0  0  0  0  0  0  0  0  0  0
    4.4072    1.0579    0.1138 C   0  0  0  0  0  0  0  0  0  0  0  0
    3.6731    2.0493    1.0358 C   0  0  0  0  0  0  0  0  0  0  0  0
    2.3539    2.5915    0.4630 C   0  0  0  0  0  0  0  0  0  0  0  0
    1.3684    1.4968    0.1976 C   0  0  0  0  0  0  0  0  0  0  0  0
    1.1122    1.1594   -0.9902 O   0  0  0  0  0  0  0  0  0  0  0  0
    0.7760    0.8325    1.2764 O   0  0  0  0  0  0  0  0  0  0  0  0
   -0.2302   -0.1720    1.1288 C   0  0  1  0  0  0  0  0  0  0  0  0
   -0.3095   -1.0450    2.3985 C   0  0  0  0  0  0  0  0  0  0  0  0
   -1.7998   -1.3428    2.6418 C   0  0  0  0  0  0  0  0  0  0  0  0
   -2.4909   -0.8172    1.3887 C   0  0  1  0  0  0  0  0  0  0  0  0
   -4.0046   -0.5070    1.4166 C   0  0  2  0  0  0  0  0  0  0  0  0
   -4.8669   -1.6679    1.9942 C   0  0  0  0  0  0  0  0  0  0  0  0
   -5.8636   -2.2869    1.0052 C   0  0  0  0  0  0  0  0  0  0  0  0
   -6.6453   -1.2464    0.2309 C   0  0  0  0  0  0  0  0  0  0  0  0
   -7.8572   -1.5823   -0.2438 C   0  0  0  0  0  0  0  0  0  0  0  0
   -8.5644   -0.7473   -1.2261 C   0  0  0  0  0  0  0  0  0  0  0  0
   -9.7454   -1.0402   -1.5508 O   0  0  0  0  0  0  0  0  0  0  0  0
   -7.9034    0.4460   -1.8485 C   0  0  0  0  0  0  0  0  0  0  0  0
   -6.3832    0.4437   -1.6157 C   0  0  0  0  0  0  0  0  0  0  0  0
   -5.9879    0.0842   -0.1503 C   0  0  1  0  0  0  0  0  0  0  0  0
   -6.5029    1.1890    0.8091 C   0  0  0  0  0  0  0  0  0  0  0  0
   -4.4315   -0.1043   -0.0354 C   0  0  1  0  0  0  0  0  0  0  0  0
   -3.5714    1.0753   -0.5815 C   0  0  0  0  0  0  0  0  0  0  0  0
   -2.0497    0.8035   -0.4637 C   0  0  0  0  0  0  0  0  0  0  0  0
   -1.6531    0.4081    0.9771 C   0  0  2  0  0  0  0  0  0  0  0  0
   -1.8097    1.6431    1.9246 C   0  0  0  0  0  0  0  0  0  0  0  0
    8.6797   -1.8004    0.6125 H   0  0  0  0  0  0  0  0  0  0  0  0
    8.6033   -3.5680    0.2638 H   0  0  0  0  0  0  0  0  0  0  0  0
    7.3440   -2.4809   -0.4134 H   0  0  0  0  0  0  0  0  0  0  0  0
   10.3313   -2.6241   -1.1491 H   0  0  0  0  0  0  0  0  0  0  0  0
    8.9481   -3.0730   -2.1974 H   0  0  0  0  0  0  0  0  0  0  0  0
    9.9939   -0.8695   -2.7713 H   0  0  0  0  0  0  0  0  0  0  0  0
    9.6096   -0.2218   -1.1576 H   0  0  0  0  0  0  0  0  0  0  0  0
    8.0403    0.0854   -3.4308 H   0  0  0  0  0  0  0  0  0  0  0  0
    7.2725   -1.3894   -2.7714 H   0  0  0  0  0  0  0  0  0  0  0  0
    6.9952   -0.1461   -0.5432 H   0  0  0  0  0  0  0  0  0  0  0  0
    7.6764    1.3207   -1.3308 H   0  0  0  0  0  0  0  0  0  0  0  0
    5.1135   -0.1882   -2.2025 H   0  0  0  0  0  0  0  0  0  0  0  0
    5.8378    1.2114   -3.0613 H   0  0  0  0  0  0  0  0  0  0  0  0
    5.6033    2.5820   -0.8998 H   0  0  0  0  0  0  0  0  0  0  0  0
    4.0958    2.1173   -1.7557 H   0  0  0  0  0  0  0  0  0  0  0  0
    3.7357    0.2134   -0.1527 H   0  0  0  0  0  0  0  0  0  0  0  0
    5.2535    0.6356    0.6943 H   0  0  0  0  0  0  0  0  0  0  0  0
    4.3452    2.9054    1.2623 H   0  0  0  0  0  0  0  0  0  0  0  0
    3.4594    1.5411    2.0018 H   0  0  0  0  0  0  0  0  0  0  0  0
    1.9067    3.2886    1.2036 H   0  0  0  0  0  0  0  0  0  0  0  0
    2.5389    3.1797   -0.4603 H   0  0  0  0  0  0  0  0  0  0  0  0
    0.0173   -0.8345    0.2668 H   0  0  0  0  0  0  0  0  0  0  0  0
    0.1139   -0.5096    3.2767 H   0  0  0  0  0  0  0  0  0  0  0  0
    0.2608   -1.9881    2.2507 H   0  0  0  0  0  0  0  0  0  0  0  0
   -1.9599   -2.4352    2.7689 H   0  0  0  0  0  0  0  0  0  0  0  0
   -2.1679   -0.8115    3.5463 H   0  0  0  0  0  0  0  0  0  0  0  0
   -2.3521   -1.6191    0.6216 H   0  0  0  0  0  0  0  0  0  0  0  0
   -4.1584    0.3527    2.0959 H   0  0  0  0  0  0  0  0  0  0  0  0
   -5.4471   -1.2820    2.8617 H   0  0  0  0  0  0  0  0  0  0  0  0
   -4.2355   -2.4880    2.3920 H   0  0  0  0  0  0  0  0  0  0  0  0
   -6.5523   -2.9468    1.5780 H   0  0  0  0  0  0  0  0  0  0  0  0
   -5.3129   -2.9269    0.2824 H   0  0  0  0  0  0  0  0  0  0  0  0
   -8.3062   -2.5289    0.0343 H   0  0  0  0  0  0  0  0  0  0  0  0
   -8.0996    0.4447   -2.9424 H   0  0  0  0  0  0  0  0  0  0  0  0
   -8.3547    1.3711   -1.4319 H   0  0  0  0  0  0  0  0  0  0  0  0
   -6.0047    1.4519   -1.8878 H   0  0  0  0  0  0  0  0  0  0  0  0
   -5.9223   -0.2910   -2.3132 H   0  0  0  0  0  0  0  0  0  0  0  0
   -7.6053    1.2934    0.7465 H   0  0  0  0  0  0  0  0  0  0  0  0
   -6.0535    2.1729    0.5635 H   0  0  0  0  0  0  0  0  0  0  0  0
   -6.2863    0.9508    1.8690 H   0  0  0  0  0  0  0  0  0  0  0  0
   -4.1780   -0.9638   -0.7001 H   0  0  0  0  0  0  0  0  0  0  0  0
   -3.7814    1.2278   -1.6600 H   0  0  0  0  0  0  0  0  0  0  0  0
   -3.8307    2.0206   -0.0653 H   0  0  0  0  0  0  0  0  0  0  0  0
   -1.7763   -0.0114   -1.1700 H   0  0  0  0  0  0  0  0  0  0  0  0
   -1.4956    1.7137   -0.7780 H   0  0  0  0  0  0  0  0  0  0  0  0
   -1.1466    2.4681    1.5877 H   0  0  0  0  0  0  0  0  0  0  0  0
   -1.5343    1.4008    2.9714 H   0  0  0  0  0  0  0  0  0  0  0  0
   -2.8335    2.0595    1.9386 H   0  0  0  0  0  0  0  0  0  0  0  0
  1  2  1  0
  2  3  1  0
  3  4  1  0
  4  5  1  0
  5  6  1  0
  6  7  1  0
  7  8  1  0
  8  9  1  0
  9 10  1  0
 10 11  1  0
 11 12  2  0
 11 13  1  0
 13 14  1  0
 14 15  1  0
 15 16  1  0
 16 17  1  0
 17 18  1  0
 18 19  1  0
 19 20  1  0
 20 21  1  0
 21 22  2  0
 22 23  1  0
 23 24  2  0
 23 25  1  0
 25 26  1  0
 26 27  1  0
 27 28  1  1
 27 29  1  0
 29 30  1  0
 30 31  1  0
 31 32  1  0
 32 33  1  1
 32 14  1  0
 32 17  1  0
 29 18  1  0
 27 21  1  0
  1 34  1  0
  1 35  1  0
  1 36  1  0
  2 37  1  0
  2 38  1  0
  3 39  1  0
  3 40  1  0
  4 41  1  0
  4 42  1  0
  5 43  1  0
  5 44  1  0
  6 45  1  0
  6 46  1  0
  7 47  1  0
  7 48  1  0
  8 49  1  0
  8 50  1  0
  9 51  1  0
  9 52  1  0
 10 53  1  0
 10 54  1  0
 14 55  1  6
 15 56  1  0
 15 57  1  0
 16 58  1  0
 16 59  1  0
 17 60  1  6
 18 61  1  1
 19 62  1  0
 19 63  1  0
 20 64  1  0
 20 65  1  0
 22 66  1  0
 25 67  1  0
 25 68  1  0
 26 69  1  0
 26 70  1  0
 28 71  1  0
 28 72  1  0
 28 73  1  0
 29 74  1  6
 30 75  1  0
 30 76  1  0
 31 77  1  0
 31 78  1  0
 33 79  1  0
 33 80  1  0
 33 81  1  0
M  END
$$$$
