
     RDKit          3D

  9  9  0  0  0  0  0  0  0  0999 V2000
   -1.0381   -0.6536    0.2282 N   0  0  0  0  0  0  0  0  0  0  0  0
   -0.7222    0.5978   -0.1463 C   0  0  0  0  0  0  0  0  0  0  0  0
    0.6480    0.7350   -0.1063 C   0  0  0  0  0  0  0  0  0  0  0  0
    1.1099   -0.4980    0.3096 C   0  0  0  0  0  0  0  0  0  0  0  0
    0.0662   -1.3264    0.5068 N   0  0  0  0  0  0  0  0  0  0  0  0
   -2.0011   -1.0507    0.2947 H   0  0  0  0  0  0  0  0  0  0  0  0
   -1.4392    1.3573   -0.4287 H   0  0  0  0  0  0  0  0  0  0  0  0
    1.2319    1.6131   -0.3471 H   0  0  0  0  0  0  0  0  0  0  0  0
    2.1448   -0.7745    0.4593 H   0  0  0  0  0  0  0  0  0  0  0  0
  1  2  1  0
  2  3  2  0
  3  4  1  0
  4  5  2  0
  5  1  1  0
  1  6  1  0
  2  7  1  0
  3  8  1  0
  4  9  1  0
M  END
$$$$
