
     RDKit          3D

 70 75  0  0  0  0  0  0  0  0999 V2000
    9.9687   -0.1248   -1.3248 C   0  0  0  0  0  0  0  0  0  0  0  0
    8.6691   -0.6536   -0.8842 N   0  0  0  0  0  0  0  0  0  0  0  0
    7.8614    0.4241   -0.2849 C   0  0  0  0  0  0  0  0  0  0  0  0
    6.5115   -0.1308    0.1790 C   0  0  0  0  0  0  0  0  0  0  0  0
    5.7858   -0.7255   -0.9637 N   0  0  0  0  0  0  0  0  0  0  0  0
    4.4701   -1.2538   -0.5411 C   0  0  0  0  0  0  0  0  0  0  0  0
    3.4281   -0.1368   -0.4898 C   0  0  0  0  0  0  0  0  0  0  0  0
    2.1424   -0.7009   -0.2435 O   0  0  0  0  0  0  0  0  0  0  0  0
    0.9539    0.0390   -0.1502 C   0  0  0  0  0  0  0  0  0  0  0  0
    0.9253    1.4349   -0.2851 C   0  0  0  0  0  0  0  0  0  0  0  0
   -0.2826    2.1293   -0.1919 C   0  0  0  0  0  0  0  0  0  0  0  0
   -1.4982    1.4342    0.0181 C   0  0  0  0  0  0  0  0  0  0  0  0
   -2.6871    2.2074    0.0664 C   0  0  0  0  0  0  0  0  0  0  0  0
   -3.9849    1.6014    0.1519 N   0  0  0  0  0  0  0  0  0  0  0  0
   -5.0769    2.2172    0.8511 C   0  0  0  0  0  0  0  0  0  0  0  0
   -4.9491    2.7391    2.1663 C   0  0  0  0  0  0  0  0  0  0  0  0
   -3.4503    2.6022    3.0775 Cl  0  0  0  0  0  0  0  0  0  0  0  0
   -6.0666    3.3274    2.8035 C   0  0  0  0  0  0  0  0  0  0  0  0
   -7.3115    3.3884    2.1538 C   0  0  0  0  0  0  0  0  0  0  0  0
   -7.4047    2.8453    0.8776 C   0  0  0  0  0  0  0  0  0  0  0  0
   -6.3385    2.2809    0.2556 C   0  0  0  0  0  0  0  0  0  0  0  0
   -6.7247    1.8295   -0.9927 O   0  0  0  0  0  0  0  0  0  0  0  0
   -8.1171    2.1269   -1.1634 C   0  0  0  0  0  0  0  0  0  0  0  0
   -8.5111    2.7758    0.0532 O   0  0  0  0  0  0  0  0  0  0  0  0
   -2.6088    3.5619   -0.0364 N   0  0  0  0  0  0  0  0  0  0  0  0
   -1.4245    4.1977   -0.2048 C   0  0  0  0  0  0  0  0  0  0  0  0
   -0.2777    3.4832   -0.2944 N   0  0  0  0  0  0  0  0  0  0  0  0
   -1.4668    0.0279    0.2013 C   0  0  0  0  0  0  0  0  0  0  0  0
   -2.6515   -0.6574    0.5233 O   0  0  0  0  0  0  0  0  0  0  0  0
   -2.8308   -2.0736    0.5717 C   0  0  0  0  0  0  0  0  0  0  0  0
   -2.8317   -2.6624   -0.8478 C   0  0  0  0  0  0  0  0  0  0  0  0
   -3.2584   -4.1351   -0.8051 C   0  0  0  0  0  0  0  0  0  0  0  0
   -4.5398   -4.2736   -0.2193 O   0  0  0  0  0  0  0  0  0  0  0  0
   -4.4981   -3.8679    1.1365 C   0  0  0  0  0  0  0  0  0  0  0  0
   -4.1717   -2.3735    1.2499 C   0  0  0  0  0  0  0  0  0  0  0  0
   -0.2353   -0.6503    0.0972 C   0  0  0  0  0  0  0  0  0  0  0  0
    6.5987   -1.8010   -1.5662 C   0  0  0  0  0  0  0  0  0  0  0  0
    7.9516   -1.2487   -2.0262 C   0  0  0  0  0  0  0  0  0  0  0  0
    9.8436    0.6701   -2.0940 H   0  0  0  0  0  0  0  0  0  0  0  0
   10.5898   -0.9432   -1.7482 H   0  0  0  0  0  0  0  0  0  0  0  0
   10.5235    0.2947   -0.4581 H   0  0  0  0  0  0  0  0  0  0  0  0
    8.3896    0.8438    0.5997 H   0  0  0  0  0  0  0  0  0  0  0  0
    7.6909    1.2486   -1.0152 H   0  0  0  0  0  0  0  0  0  0  0  0
    6.6809   -0.8864    0.9803 H   0  0  0  0  0  0  0  0  0  0  0  0
    5.9296    0.7102    0.6109 H   0  0  0  0  0  0  0  0  0  0  0  0
    4.5330   -1.7615    0.4483 H   0  0  0  0  0  0  0  0  0  0  0  0
    4.0990   -2.0069   -1.2732 H   0  0  0  0  0  0  0  0  0  0  0  0
    3.4182    0.3989   -1.4642 H   0  0  0  0  0  0  0  0  0  0  0  0
    3.6738    0.5774    0.3236 H   0  0  0  0  0  0  0  0  0  0  0  0
    1.8369    1.9919   -0.4578 H   0  0  0  0  0  0  0  0  0  0  0  0
   -4.2127    0.8548   -0.5431 H   0  0  0  0  0  0  0  0  0  0  0  0
   -5.9722    3.7222    3.8070 H   0  0  0  0  0  0  0  0  0  0  0  0
   -8.1727    3.8326    2.6352 H   0  0  0  0  0  0  0  0  0  0  0  0
   -8.2598    2.8108   -2.0261 H   0  0  0  0  0  0  0  0  0  0  0  0
   -8.6948    1.1890   -1.3018 H   0  0  0  0  0  0  0  0  0  0  0  0
   -1.3970    5.2756   -0.2844 H   0  0  0  0  0  0  0  0  0  0  0  0
   -2.0286   -2.5414    1.1838 H   0  0  0  0  0  0  0  0  0  0  0  0
   -1.8209   -2.5869   -1.3001 H   0  0  0  0  0  0  0  0  0  0  0  0
   -3.5415   -2.0939   -1.4884 H   0  0  0  0  0  0  0  0  0  0  0  0
   -2.5009   -4.7486   -0.2655 H   0  0  0  0  0  0  0  0  0  0  0  0
   -3.3055   -4.5192   -1.8458 H   0  0  0  0  0  0  0  0  0  0  0  0
   -5.4973   -4.0460    1.5866 H   0  0  0  0  0  0  0  0  0  0  0  0
   -3.7665   -4.4763    1.7161 H   0  0  0  0  0  0  0  0  0  0  0  0
   -4.9806   -1.7840    0.7638 H   0  0  0  0  0  0  0  0  0  0  0  0
   -4.1234   -2.0819    2.3214 H   0  0  0  0  0  0  0  0  0  0  0  0
   -0.1772   -1.7209    0.2266 H   0  0  0  0  0  0  0  0  0  0  0  0
    6.0788   -2.2152   -2.4581 H   0  0  0  0  0  0  0  0  0  0  0  0
    6.7611   -2.6291   -0.8383 H   0  0  0  0  0  0  0  0  0  0  0  0
    8.5464   -2.0884   -2.4489 H   0  0  0  0  0  0  0  0  0  0  0  0
    7.7882   -0.4951   -2.8310 H   0  0  0  0  0  0  0  0  0  0  0  0
  1  2  1  0
  2  3  1  0
  3  4  1  0
  4  5  1  0
  5  6  1  0
  6  7  1  0
  7  8  1  0
  8  9  1  0
  9 10  2  0
 10 11  1  0
 11 12  2  0
 12 13  1  0
 13 14  1  0
 14 15  1  0
 15 16  2  0
 16 17  1  0
 16 18  1  0
 18 19  2  0
 19 20  1  0
 20 21  2  0
 21 22  1  0
 22 23  1  0
 23 24  1  0
 13 25  2  0
 25 26  1  0
 26 27  2  0
 12 28  1  0
 28 29  1  0
 29 30  1  0
 30 31  1  0
 31 32  1  0
 32 33  1  0
 33 34  1  0
 34 35  1  0
 28 36  2  0
  5 37  1  0
 37 38  1  0
 38  2  1  0
 36  9  1  0
 27 11  1  0
 35 30  1  0
 21 15  1  0
 24 20  1  0
  1 39  1  0
  1 40  1  0
  1 41  1  0
  3 42  1  0
  3 43  1  0
  4 44  1  0
  4 45  1  0
  6 46  1  0
  6 47  1  0
  7 48  1  0
  7 49  1  0
 10 50  1  0
 14 51  1  0
 18 52  1  0
 19 53  1  0
 23 54  1  0
 23 55  1  0
 26 56  1  0
 30 57  1  0
 31 58  1  0
 31 59  1  0
 32 60  1  0
 32 61  1  0
 34 62  1  0
 34 63  1  0
 35 64  1  0
 35 65  1  0
 36 66  1  0
 37 67  1  0
 37 68  1  0
 38 69  1  0
 38 70  1  0
M  END
$$$$
