
     RDKit          3D

 29 29  0  0  0  0  0  0  0  0999 V2000
    2.6964   -0.4197   -0.2984 C   0  0  1  0  0  0  0  0  0  0  0  0
    2.3663   -1.7967    0.0783 N   0  0  0  0  0  0  0  0  0  0  0  0
    2.0280    0.5841    0.6603 C   0  0  0  0  0  0  0  0  0  0  0  0
    0.5271    0.5853    0.5162 C   0  0  0  0  0  0  0  0  0  0  0  0
   -0.2765   -0.1213    1.4251 C   0  0  0  0  0  0  0  0  0  0  0  0
   -1.6659   -0.1386    1.2735 C   0  0  0  0  0  0  0  0  0  0  0  0
   -2.2724    0.5523    0.2125 C   0  0  0  0  0  0  0  0  0  0  0  0
   -3.7680    0.5085    0.0320 C   0  0  0  0  0  0  0  0  0  0  0  0
   -4.1944   -0.6748   -0.8389 C   0  0  0  0  0  0  0  0  0  0  0  0
   -3.8061   -1.8663   -0.2520 F   0  0  0  0  0  0  0  0  0  0  0  0
   -3.6216   -0.5766   -2.0948 F   0  0  0  0  0  0  0  0  0  0  0  0
   -5.5705   -0.6714   -0.9743 F   0  0  0  0  0  0  0  0  0  0  0  0
   -1.4676    1.2462   -0.7049 C   0  0  0  0  0  0  0  0  0  0  0  0
   -0.0783    1.2633   -0.5535 C   0  0  0  0  0  0  0  0  0  0  0  0
    4.1868   -0.2266   -0.2672 C   0  0  0  0  0  0  0  0  0  0  0  0
    4.8280    0.3816   -1.3419 O   0  0  0  0  0  0  0  0  0  0  0  0
    4.8542   -0.5881    0.7396 O   0  0  0  0  0  0  0  0  0  0  0  0
    2.3414   -0.2276   -1.3370 H   0  0  0  0  0  0  0  0  0  0  0  0
    1.3485   -1.9556   -0.1011 H   0  0  0  0  0  0  0  0  0  0  0  0
    2.8679   -2.4459   -0.5715 H   0  0  0  0  0  0  0  0  0  0  0  0
    2.4038    1.6095    0.4456 H   0  0  0  0  0  0  0  0  0  0  0  0
    2.3145    0.3497    1.7098 H   0  0  0  0  0  0  0  0  0  0  0  0
    0.1729   -0.6647    2.2470 H   0  0  0  0  0  0  0  0  0  0  0  0
   -2.2692   -0.6940    1.9811 H   0  0  0  0  0  0  0  0  0  0  0  0
   -4.2664    0.4321    1.0231 H   0  0  0  0  0  0  0  0  0  0  0  0
   -4.1201    1.4536   -0.4365 H   0  0  0  0  0  0  0  0  0  0  0  0
   -1.9162    1.7709   -1.5394 H   0  0  0  0  0  0  0  0  0  0  0  0
    0.5273    1.8014   -1.2724 H   0  0  0  0  0  0  0  0  0  0  0  0
    5.8301    0.5296   -1.3327 H   0  0  0  0  0  0  0  0  0  0  0  0
  1  2  1  0
  1  3  1  0
  3  4  1  0
  4  5  2  0
  5  6  1  0
  6  7  2  0
  7  8  1  0
  8  9  1  0
  9 10  1  0
  9 11  1  0
  9 12  1  0
  7 13  1  0
 13 14  2  0
  1 15  1  0
 15 16  1  0
 15 17  2  0
 14  4  1  0
  1 18  1  6
  2 19  1  0
  2 20  1  0
  3 21  1  0
  3 22  1  0
  5 23  1  0
  6 24  1  0
  8 25  1  0
  8 26  1  0
 13 27  1  0
 14 28  1  0
 16 29  1  0
M  END
$$$$
