
     RDKit          3D

 87 91  0  0  0  0  0  0  0  0999 V2000
   -0.4464    0.2158   -0.6507 C   0  0  1  0  0  0  0  0  0  0  0  0
    0.9577    0.4435   -1.2368 C   0  0  0  0  0  0  0  0  0  0  0  0
    2.0545   -0.0982   -0.3081 C   0  0  1  0  0  0  0  0  0  0  0  0
    1.9219    0.5187    0.9552 O   0  0  0  0  0  0  0  0  0  0  0  0
    1.8781   -1.6299   -0.1835 C   0  0  0  0  0  0  0  0  0  0  0  0
    0.4526   -2.0701    0.1086 C   0  0  0  0  0  0  0  0  0  0  0  0
    0.2099   -3.3856    0.5751 C   0  0  0  0  0  0  0  0  0  0  0  0
    1.2648   -4.2869    0.7664 O   0  0  0  0  0  0  0  0  0  0  0  0
   -1.1097   -3.8202    0.8371 C   0  0  0  0  0  0  0  0  0  0  0  0
   -2.1986   -2.9688    0.5513 C   0  0  0  0  0  0  0  0  0  0  0  0
   -1.9556   -1.6453    0.1148 C   0  0  0  0  0  0  0  0  0  0  0  0
   -2.9957   -0.7192   -0.0200 O   0  0  0  0  0  0  0  0  0  0  0  0
   -0.6436   -1.2117   -0.1593 C   0  0  0  0  0  0  0  0  0  0  0  0
   -3.5792   -3.5193    0.6517 C   0  0  0  0  0  0  0  0  0  0  0  0
   -4.5089   -3.0288   -0.0443 O   0  0  0  0  0  0  0  0  0  0  0  0
   -3.8401   -4.7270    1.4704 C   0  0  0  0  0  0  0  0  0  0  0  0
   -5.1503   -5.0808    1.8744 C   0  0  0  0  0  0  0  0  0  0  0  0
   -6.2262   -4.2405    1.5405 O   0  0  0  0  0  0  0  0  0  0  0  0
   -7.5851   -4.4831    1.8905 C   0  0  0  0  0  0  0  0  0  0  0  0
   -5.3474   -6.2628    2.6140 C   0  0  0  0  0  0  0  0  0  0  0  0
   -4.2668   -7.0755    2.9503 C   0  0  0  0  0  0  0  0  0  0  0  0
   -2.9767   -6.7233    2.5608 C   0  0  0  0  0  0  0  0  0  0  0  0
   -2.7517   -5.5483    1.8242 C   0  0  0  0  0  0  0  0  0  0  0  0
   -1.3800   -5.1733    1.4101 C   0  0  0  0  0  0  0  0  0  0  0  0
   -0.4442   -6.0048    1.5656 O   0  0  0  0  0  0  0  0  0  0  0  0
    3.4178    0.2233   -0.9137 C   0  0  0  0  0  0  0  0  0  0  0  0
    3.7044   -0.2276   -2.0147 O   0  0  0  0  0  0  0  0  0  0  0  0
    4.4041    1.1222   -0.2046 C   0  0  0  0  0  0  0  0  0  0  0  0
    5.6044    1.2824   -0.9603 O   0  0  0  0  0  0  0  0  0  0  0  0
    6.5835    0.2875   -1.0629 C   0  0  0  0  0  0  0  0  0  0  0  0
    6.4553   -0.8092   -0.4527 O   0  0  0  0  0  0  0  0  0  0  0  0
    7.7663    0.5105   -1.9498 C   0  0  0  0  0  0  0  0  0  0  0  0
    7.4248    0.1280   -3.3954 C   0  0  0  0  0  0  0  0  0  0  0  0
    8.6358    0.2322   -4.3348 C   0  0  0  0  0  0  0  0  0  0  0  0
    9.0520    1.6781   -4.6039 C   0  0  0  0  0  0  0  0  0  0  0  0
   -0.6604    1.1000    0.4421 O   0  0  0  0  0  0  0  0  0  0  0  0
   -1.5014    2.1846    0.0930 C   0  0  1  0  0  0  0  0  0  0  0  0
   -1.8470    2.9674    1.3749 C   0  0  0  0  0  0  0  0  0  0  0  0
   -2.1846    4.4443    1.0727 C   0  0  2  0  0  0  0  0  0  0  0  0
   -3.1186    4.9783    2.0712 N   0  0  0  0  0  0  0  0  0  0  0  0
   -2.7310    5.2135    3.4327 C   0  0  0  0  0  0  0  0  0  0  0  0
   -1.5462    4.9924    3.8043 O   0  0  0  0  0  0  0  0  0  0  0  0
   -3.7325    5.7432    4.4125 C   0  0  0  0  0  0  0  0  0  0  0  0
   -4.1308    7.0087    4.0243 F   0  0  0  0  0  0  0  0  0  0  0  0
   -4.8341    4.9085    4.4443 F   0  0  0  0  0  0  0  0  0  0  0  0
   -3.1832    5.8117    5.6809 F   0  0  0  0  0  0  0  0  0  0  0  0
   -2.7512    4.5868   -0.3517 C   0  0  2  0  0  0  0  0  0  0  0  0
   -3.9765    3.8977   -0.4392 O   0  0  0  0  0  0  0  0  0  0  0  0
   -1.7070    4.0246   -1.3689 C   0  0  2  0  0  0  0  0  0  0  0  0
   -2.3278    3.5303   -2.6809 C   0  0  0  0  0  0  0  0  0  0  0  0
   -0.8375    3.0337   -0.8280 O   0  0  0  0  0  0  0  0  0  0  0  0
   -1.1640    0.3767   -1.4924 H   0  0  0  0  0  0  0  0  0  0  0  0
    1.1196    1.5283   -1.4151 H   0  0  0  0  0  0  0  0  0  0  0  0
    1.0181   -0.0623   -2.2272 H   0  0  0  0  0  0  0  0  0  0  0  0
    2.5287    0.0632    1.5952 H   0  0  0  0  0  0  0  0  0  0  0  0
    2.5602   -1.9806    0.6197 H   0  0  0  0  0  0  0  0  0  0  0  0
    2.1880   -2.1265   -1.1293 H   0  0  0  0  0  0  0  0  0  0  0  0
    2.2197   -4.1215    0.4798 H   0  0  0  0  0  0  0  0  0  0  0  0
   -3.8979   -0.8194    0.4244 H   0  0  0  0  0  0  0  0  0  0  0  0
   -7.6951   -4.5160    2.9950 H   0  0  0  0  0  0  0  0  0  0  0  0
   -7.9305   -5.4382    1.4416 H   0  0  0  0  0  0  0  0  0  0  0  0
   -8.2132   -3.6583    1.4961 H   0  0  0  0  0  0  0  0  0  0  0  0
   -6.3347   -6.5627    2.9372 H   0  0  0  0  0  0  0  0  0  0  0  0
   -4.4298   -7.9817    3.5196 H   0  0  0  0  0  0  0  0  0  0  0  0
   -2.1539   -7.3692    2.8410 H   0  0  0  0  0  0  0  0  0  0  0  0
    4.6476    0.7151    0.8000 H   0  0  0  0  0  0  0  0  0  0  0  0
    3.9382    2.1209   -0.0715 H   0  0  0  0  0  0  0  0  0  0  0  0
    8.0519    1.5818   -1.8930 H   0  0  0  0  0  0  0  0  0  0  0  0
    8.6222   -0.0994   -1.5865 H   0  0  0  0  0  0  0  0  0  0  0  0
    6.5986    0.7706   -3.7729 H   0  0  0  0  0  0  0  0  0  0  0  0
    7.0664   -0.9251   -3.4126 H   0  0  0  0  0  0  0  0  0  0  0  0
    9.4967   -0.3315   -3.9140 H   0  0  0  0  0  0  0  0  0  0  0  0
    8.3684   -0.2389   -5.3054 H   0  0  0  0  0  0  0  0  0  0  0  0
    9.4511    2.1506   -3.6828 H   0  0  0  0  0  0  0  0  0  0  0  0
    8.1888    2.2679   -4.9791 H   0  0  0  0  0  0  0  0  0  0  0  0
    9.8516    1.6941   -5.3742 H   0  0  0  0  0  0  0  0  0  0  0  0
   -2.4552    1.7969   -0.3370 H   0  0  0  0  0  0  0  0  0  0  0  0
   -2.7073    2.4682    1.8736 H   0  0  0  0  0  0  0  0  0  0  0  0
   -0.9868    2.9360    2.0793 H   0  0  0  0  0  0  0  0  0  0  0  0
   -1.2445    5.0406    1.1150 H   0  0  0  0  0  0  0  0  0  0  0  0
   -4.0889    5.2420    1.7842 H   0  0  0  0  0  0  0  0  0  0  0  0
   -2.9109    5.6730   -0.5567 H   0  0  0  0  0  0  0  0  0  0  0  0
   -4.5302    4.3709   -1.1137 H   0  0  0  0  0  0  0  0  0  0  0  0
   -1.0549    4.8824   -1.6445 H   0  0  0  0  0  0  0  0  0  0  0  0
   -2.9331    4.3375   -3.1455 H   0  0  0  0  0  0  0  0  0  0  0  0
   -2.9739    2.6444   -2.5084 H   0  0  0  0  0  0  0  0  0  0  0  0
   -1.5227    3.2424   -3.3898 H   0  0  0  0  0  0  0  0  0  0  0  0
  1  2  1  0
  2  3  1  0
  3  4  1  1
  3  5  1  0
  5  6  1  0
  6  7  2  0
  7  8  1  0
  7  9  1  0
  9 10  2  0
 10 11  1  0
 11 12  1  0
 11 13  2  0
 10 14  1  0
 14 15  2  0
 14 16  1  0
 16 17  2  0
 17 18  1  0
 18 19  1  0
 17 20  1  0
 20 21  2  0
 21 22  1  0
 22 23  2  0
 23 24  1  0
 24 25  2  0
  3 26  1  0
 26 27  2  0
 26 28  1  0
 28 29  1  0
 29 30  1  0
 30 31  2  0
 30 32  1  0
 32 33  1  0
 33 34  1  0
 34 35  1  0
  1 36  1  0
 36 37  1  0
 37 38  1  0
 38 39  1  0
 39 40  1  0
 40 41  1  0
 41 42  2  0
 41 43  1  0
 43 44  1  0
 43 45  1  0
 43 46  1  0
 39 47  1  0
 47 48  1  0
 47 49  1  0
 49 50  1  0
 49 51  1  0
 13  1  1  0
 23 16  1  0
 51 37  1  0
 13  6  1  0
 24  9  1  0
  1 52  1  6
  2 53  1  0
  2 54  1  0
  4 55  1  0
  5 56  1  0
  5 57  1  0
  8 58  1  0
 12 59  1  0
 19 60  1  0
 19 61  1  0
 19 62  1  0
 20 63  1  0
 21 64  1  0
 22 65  1  0
 28 66  1  0
 28 67  1  0
 32 68  1  0
 32 69  1  0
 33 70  1  0
 33 71  1  0
 34 72  1  0
 34 73  1  0
 35 74  1  0
 35 75  1  0
 35 76  1  0
 37 77  1  6
 38 78  1  0
 38 79  1  0
 39 80  1  6
 40 81  1  0
 47 82  1  6
 48 83  1  0
 49 84  1  6
 50 85  1  0
 50 86  1  0
 50 87  1  0
M  END
$$$$
