
     RDKit          3D

 15 16  0  0  0  0  0  0  0  0999 V2000
   -3.1440   -1.0408    0.2228 O   0  0  0  0  0  0  0  0  0  0  0  0
   -1.9801   -0.5644    0.1446 C   0  0  0  0  0  0  0  0  0  0  0  0
   -0.9071   -1.4064    0.0128 N   0  0  0  0  0  0  0  0  0  0  0  0
    0.3313   -0.8619   -0.0687 C   0  0  0  0  0  0  0  0  0  0  0  0
    0.5332    0.4729   -0.0240 C   0  0  0  0  0  0  0  0  0  0  0  0
    1.8425    0.7274   -0.1251 N   0  0  0  0  0  0  0  0  0  0  0  0
    2.4013   -0.5050   -0.2307 C   0  0  0  0  0  0  0  0  0  0  0  0
    1.4954   -1.5211   -0.1998 N   0  0  0  0  0  0  0  0  0  0  0  0
   -0.5408    1.3408    0.1091 C   0  0  0  0  0  0  0  0  0  0  0  0
   -0.3721    2.5886    0.1526 O   0  0  0  0  0  0  0  0  0  0  0  0
   -1.7935    0.7975    0.1919 N   0  0  0  0  0  0  0  0  0  0  0  0
   -1.0360   -2.4428   -0.0243 H   0  0  0  0  0  0  0  0  0  0  0  0
    2.3250    1.6534   -0.1236 H   0  0  0  0  0  0  0  0  0  0  0  0
    3.4666   -0.6661   -0.3301 H   0  0  0  0  0  0  0  0  0  0  0  0
   -2.6216    1.4279    0.2926 H   0  0  0  0  0  0  0  0  0  0  0  0
  1  2  2  0
  2  3  1  0
  3  4  1  0
  4  5  2  0
  5  6  1  0
  6  7  1  0
  7  8  2  0
  5  9  1  0
  9 10  2  0
  9 11  1  0
 11  2  1  0
  8  4  1  0
  3 12  1  0
  6 13  1  0
  7 14  1  0
 11 15  1  0
M  END
$$$$
