
     RDKit          3D

 35 36  0  0  0  0  0  0  0  0999 V2000
   -5.5697   -2.6306   -0.7578 C   0  0  0  0  0  0  0  0  0  0  0  0
   -4.7885   -1.5441   -1.2446 O   0  0  0  0  0  0  0  0  0  0  0  0
   -3.5474   -1.1543   -0.7155 C   0  0  0  0  0  0  0  0  0  0  0  0
   -2.9546   -1.8210    0.3733 C   0  0  0  0  0  0  0  0  0  0  0  0
   -1.7061   -1.4063    0.8782 C   0  0  0  0  0  0  0  0  0  0  0  0
   -1.0925   -2.0548    1.9629 O   0  0  0  0  0  0  0  0  0  0  0  0
   -1.6458   -3.1654    2.6616 C   0  0  0  0  0  0  0  0  0  0  0  0
   -1.0424   -0.3200    0.2790 C   0  0  0  0  0  0  0  0  0  0  0  0
    0.2198    0.1254    0.8077 N   0  0  0  0  0  0  0  0  0  0  0  0
    1.2952    0.6225   -0.0034 C   0  0  0  0  0  0  0  0  0  0  0  0
    1.2661    0.4726   -1.2554 O   0  0  0  0  0  0  0  0  0  0  0  0
    2.4397    1.2172    0.6276 N   0  0  0  0  0  0  0  0  0  0  0  0
    3.4694    1.9359   -0.0694 C   0  0  0  0  0  0  0  0  0  0  0  0
    4.7343    1.9370    0.4325 N   0  0  0  0  0  0  0  0  0  0  0  0
    5.7407    2.6212   -0.1717 C   0  0  0  0  0  0  0  0  0  0  0  0
    5.4714    3.3540   -1.3307 C   0  0  0  0  0  0  0  0  0  0  0  0
    4.2062    3.3783   -1.8243 N   0  0  0  0  0  0  0  0  0  0  0  0
    3.1991    2.6928   -1.2222 C   0  0  0  0  0  0  0  0  0  0  0  0
    6.5137    4.0890   -1.9932 C   0  0  0  0  0  0  0  0  0  0  0  0
    7.3529    4.6809   -2.5266 N   0  0  0  0  0  0  0  0  0  0  0  0
   -1.6472    0.3538   -0.7948 C   0  0  0  0  0  0  0  0  0  0  0  0
   -2.8842   -0.0632   -1.2917 C   0  0  0  0  0  0  0  0  0  0  0  0
   -3.6035    0.8056   -2.6395 Cl  0  0  0  0  0  0  0  0  0  0  0  0
   -5.0026   -3.5808   -0.8513 H   0  0  0  0  0  0  0  0  0  0  0  0
   -6.4965   -2.7096   -1.3621 H   0  0  0  0  0  0  0  0  0  0  0  0
   -5.8507   -2.4544    0.3020 H   0  0  0  0  0  0  0  0  0  0  0  0
   -3.4626   -2.6591    0.8260 H   0  0  0  0  0  0  0  0  0  0  0  0
   -0.9490   -3.4685    3.4695 H   0  0  0  0  0  0  0  0  0  0  0  0
   -2.6180   -2.8836    3.1184 H   0  0  0  0  0  0  0  0  0  0  0  0
   -1.7813   -4.0232    1.9694 H   0  0  0  0  0  0  0  0  0  0  0  0
    0.3923    0.0248    1.8333 H   0  0  0  0  0  0  0  0  0  0  0  0
    2.5764    1.0474    1.6493 H   0  0  0  0  0  0  0  0  0  0  0  0
    6.7374    2.5944    0.2504 H   0  0  0  0  0  0  0  0  0  0  0  0
    2.1988    2.7654   -1.6254 H   0  0  0  0  0  0  0  0  0  0  0  0
   -1.1706    1.2208   -1.2337 H   0  0  0  0  0  0  0  0  0  0  0  0
  1  2  1  0
  2  3  1  0
  3  4  2  0
  4  5  1  0
  5  6  1  0
  6  7  1  0
  5  8  2  0
  8  9  1  0
  9 10  1  0
 10 11  2  0
 10 12  1  0
 12 13  1  0
 13 14  2  0
 14 15  1  0
 15 16  2  0
 16 17  1  0
 17 18  2  0
 16 19  1  0
 19 20  3  0
  8 21  1  0
 21 22  2  0
 22 23  1  0
 22  3  1  0
 18 13  1  0
  1 24  1  0
  1 25  1  0
  1 26  1  0
  4 27  1  0
  7 28  1  0
  7 29  1  0
  7 30  1  0
  9 31  1  0
 12 32  1  0
 15 33  1  0
 18 34  1  0
 21 35  1  0
M  END
$$$$
