
     RDKit          3D

 81 83  0  0  0  0  0  0  0  0999 V2000
   -7.4961    3.3437   -2.5074 C   0  0  0  0  0  0  0  0  0  0  0  0
   -6.1542    2.8793   -2.6169 O   0  0  0  0  0  0  0  0  0  0  0  0
   -5.3290    2.5355   -1.5308 C   0  0  0  0  0  0  0  0  0  0  0  0
   -4.0188    2.0873   -1.7813 C   0  0  0  0  0  0  0  0  0  0  0  0
   -3.5325    2.0006   -3.2122 C   0  0  0  0  0  0  0  0  0  0  0  0
   -3.1906    1.6797   -0.7008 C   0  0  0  0  0  0  0  0  0  0  0  0
   -1.8484    1.0371   -0.9885 C   0  0  0  0  0  0  0  0  0  0  0  0
   -3.6252    1.8901    0.6401 C   0  0  0  0  0  0  0  0  0  0  0  0
   -4.9666    2.2905    0.8717 C   0  0  0  0  0  0  0  0  0  0  0  0
   -5.5573    2.3931    2.2556 C   0  0  0  0  0  0  0  0  0  0  0  0
   -5.7904    2.6185   -0.2112 C   0  0  0  0  0  0  0  0  0  0  0  0
   -2.4960    1.6414    2.0063 S   0  0  0  0  0  6  0  0  0  0  0  0
   -2.8838    2.4743    3.1960 O   0  0  0  0  0  0  0  0  0  0  0  0
   -1.1124    2.0673    1.5991 O   0  0  0  0  0  0  0  0  0  0  0  0
   -2.5168   -0.0447    2.4443 N   0  0  0  0  0  0  0  0  0  0  0  0
   -1.4218   -0.3615    3.3788 C   0  0  1  0  0  0  0  0  0  0  0  0
   -1.7033   -1.6730    4.1414 C   0  0  0  0  0  0  0  0  0  0  0  0
   -2.7970   -1.5036    5.1519 C   0  0  0  0  0  0  0  0  0  0  0  0
   -4.0721   -1.9921    4.8842 O   0  0  0  0  0  0  0  0  0  0  0  0
   -2.5684   -0.9001    6.2342 O   0  0  0  0  0  0  0  0  0  0  0  0
   -0.1360   -0.5106    2.6086 C   0  0  0  0  0  0  0  0  0  0  0  0
    0.8901    0.1168    2.9881 O   0  0  0  0  0  0  0  0  0  0  0  0
   -0.0780   -1.3572    1.4503 N   0  0  0  0  0  0  0  0  0  0  0  0
    1.0472   -1.3058    0.5118 C   0  0  2  0  0  0  0  0  0  0  0  0
    0.6803   -2.0292   -0.8002 C   0  0  0  0  0  0  0  0  0  0  0  0
    1.7117   -1.7848   -1.8718 C   0  0  0  0  0  0  0  0  0  0  0  0
    2.7864   -2.6709   -2.0383 C   0  0  0  0  0  0  0  0  0  0  0  0
    3.7887   -2.3981   -2.9727 C   0  0  0  0  0  0  0  0  0  0  0  0
    3.7331   -1.2330   -3.7584 C   0  0  0  0  0  0  0  0  0  0  0  0
    2.6538   -0.3488   -3.5899 C   0  0  0  0  0  0  0  0  0  0  0  0
    1.6527   -0.6218   -2.6539 C   0  0  0  0  0  0  0  0  0  0  0  0
    4.8041   -0.9265   -4.7391 C   0  0  0  0  0  0  0  0  0  0  0  0
    5.2299    0.4236   -4.9406 N   0  0  0  0  0  0  0  0  0  0  0  0
    5.3649   -1.8698   -5.4304 N   0  0  0  0  0  0  0  0  0  0  0  0
    2.2688   -1.9469    1.1393 C   0  0  0  0  0  0  0  0  0  0  0  0
    2.1099   -3.0108    1.7993 O   0  0  0  0  0  0  0  0  0  0  0  0
    3.6018   -1.4187    0.9427 N   0  0  0  0  0  0  0  0  0  0  0  0
    3.8065   -0.0221    0.5187 C   0  0  0  0  0  0  0  0  0  0  0  0
    5.2920    0.3595    0.4993 C   0  0  0  0  0  0  0  0  0  0  0  0
    5.9793   -0.1043    1.7875 C   0  0  0  0  0  0  0  0  0  0  0  0
    5.8040   -1.6160    2.0522 C   0  0  0  0  0  0  0  0  0  0  0  0
    4.7761   -2.2863    1.1285 C   0  0  0  0  0  0  0  0  0  0  0  0
   -7.8948    3.5406   -3.5235 H   0  0  0  0  0  0  0  0  0  0  0  0
   -7.5273    4.2887   -1.9250 H   0  0  0  0  0  0  0  0  0  0  0  0
   -8.1294    2.5714   -2.0218 H   0  0  0  0  0  0  0  0  0  0  0  0
   -2.4708    2.3169   -3.2854 H   0  0  0  0  0  0  0  0  0  0  0  0
   -4.1003    2.6723   -3.8886 H   0  0  0  0  0  0  0  0  0  0  0  0
   -3.6364    0.9579   -3.5786 H   0  0  0  0  0  0  0  0  0  0  0  0
   -1.0616    1.8165   -1.0601 H   0  0  0  0  0  0  0  0  0  0  0  0
   -1.5802    0.3009   -0.2071 H   0  0  0  0  0  0  0  0  0  0  0  0
   -1.8661    0.4522   -1.9304 H   0  0  0  0  0  0  0  0  0  0  0  0
   -6.6680    2.3867    2.2252 H   0  0  0  0  0  0  0  0  0  0  0  0
   -5.2346    3.3414    2.7329 H   0  0  0  0  0  0  0  0  0  0  0  0
   -5.2552    1.5248    2.8765 H   0  0  0  0  0  0  0  0  0  0  0  0
   -6.8026    2.9470   -0.0168 H   0  0  0  0  0  0  0  0  0  0  0  0
   -3.4371   -0.2032    2.9128 H   0  0  0  0  0  0  0  0  0  0  0  0
   -1.3030    0.4557    4.1282 H   0  0  0  0  0  0  0  0  0  0  0  0
   -1.9818   -2.4785    3.4275 H   0  0  0  0  0  0  0  0  0  0  0  0
   -0.7857   -2.0016    4.6781 H   0  0  0  0  0  0  0  0  0  0  0  0
   -4.8242   -1.8746    5.5525 H   0  0  0  0  0  0  0  0  0  0  0  0
   -0.9071   -1.9547    1.2292 H   0  0  0  0  0  0  0  0  0  0  0  0
    1.2280   -0.2371    0.2731 H   0  0  0  0  0  0  0  0  0  0  0  0
   -0.3055   -1.6634   -1.1615 H   0  0  0  0  0  0  0  0  0  0  0  0
    0.5655   -3.1207   -0.6165 H   0  0  0  0  0  0  0  0  0  0  0  0
    2.8612   -3.5616   -1.4267 H   0  0  0  0  0  0  0  0  0  0  0  0
    4.6216   -3.0842   -3.0580 H   0  0  0  0  0  0  0  0  0  0  0  0
    2.5780    0.5507   -4.1875 H   0  0  0  0  0  0  0  0  0  0  0  0
    0.8388    0.0816   -2.5275 H   0  0  0  0  0  0  0  0  0  0  0  0
    5.9543    0.6462   -5.6592 H   0  0  0  0  0  0  0  0  0  0  0  0
    4.8702    1.1994   -4.3419 H   0  0  0  0  0  0  0  0  0  0  0  0
    5.0897   -2.8738   -5.3476 H   0  0  0  0  0  0  0  0  0  0  0  0
    3.3941    0.1305   -0.4996 H   0  0  0  0  0  0  0  0  0  0  0  0
    3.2771    0.6542    1.2248 H   0  0  0  0  0  0  0  0  0  0  0  0
    5.7890   -0.1084   -0.3789 H   0  0  0  0  0  0  0  0  0  0  0  0
    5.3911    1.4619    0.3987 H   0  0  0  0  0  0  0  0  0  0  0  0
    5.5556    0.4688    2.6418 H   0  0  0  0  0  0  0  0  0  0  0  0
    7.0618    0.1416    1.7308 H   0  0  0  0  0  0  0  0  0  0  0  0
    6.7811   -2.1316    1.9281 H   0  0  0  0  0  0  0  0  0  0  0  0
    5.4864   -1.7625    3.1078 H   0  0  0  0  0  0  0  0  0  0  0  0
    4.5021   -3.2755    1.5526 H   0  0  0  0  0  0  0  0  0  0  0  0
    5.2397   -2.4780    0.1362 H   0  0  0  0  0  0  0  0  0  0  0  0
  1  2  1  0
  2  3  1  0
  3  4  2  0
  4  5  1  0
  4  6  1  0
  6  7  1  0
  6  8  2  0
  8  9  1  0
  9 10  1  0
  9 11  2  0
  8 12  1  0
 12 13  2  0
 12 14  2  0
 12 15  1  0
 15 16  1  0
 16 17  1  0
 17 18  1  0
 18 19  1  0
 18 20  2  0
 16 21  1  0
 21 22  2  0
 21 23  1  0
 23 24  1  0
 24 25  1  0
 25 26  1  0
 26 27  2  0
 27 28  1  0
 28 29  2  0
 29 30  1  0
 30 31  2  0
 29 32  1  0
 32 33  1  0
 32 34  2  3
 24 35  1  0
 35 36  2  0
 35 37  1  0
 37 38  1  0
 38 39  1  0
 39 40  1  0
 40 41  1  0
 41 42  1  0
 11  3  1  0
 31 26  1  0
 42 37  1  0
  1 43  1  0
  1 44  1  0
  1 45  1  0
  5 46  1  0
  5 47  1  0
  5 48  1  0
  7 49  1  0
  7 50  1  0
  7 51  1  0
 10 52  1  0
 10 53  1  0
 10 54  1  0
 11 55  1  0
 15 56  1  0
 16 57  1  1
 17 58  1  0
 17 59  1  0
 19 60  1  0
 23 61  1  0
 24 62  1  6
 25 63  1  0
 25 64  1  0
 27 65  1  0
 28 66  1  0
 30 67  1  0
 31 68  1  0
 33 69  1  0
 33 70  1  0
 34 71  1  0
 38 72  1  0
 38 73  1  0
 39 74  1  0
 39 75  1  0
 40 76  1  0
 40 77  1  0
 41 78  1  0
 41 79  1  0
 42 80  1  0
 42 81  1  0
M  END
$$$$
