
     RDKit          3D

 77 81  0  0  0  0  0  0  0  0999 V2000
    4.7933    2.1525    2.2381 C   0  0  0  0  0  0  0  0  0  0  0  0
    4.4479    0.6866    1.8920 C   0  0  0  0  0  0  0  0  0  0  0  0
    4.5725   -0.1509    3.1841 C   0  0  0  0  0  0  0  0  0  0  0  0
    5.4638    0.1455    0.8315 C   0  0  0  0  0  0  0  0  0  0  0  0
    4.9813    0.3805   -0.6105 C   0  0  0  0  0  0  0  0  0  0  0  0
    3.6365   -0.3617   -0.9293 C   0  0  2  0  0  0  0  0  0  0  0  0
    2.8272    0.5023   -1.9456 C   0  0  0  0  0  0  0  0  0  0  0  0
    1.3964   -0.0119   -2.2252 C   0  0  0  0  0  0  0  0  0  0  0  0
    0.5102   -0.1675   -0.9415 C   0  0  2  0  0  0  0  0  0  0  0  0
    0.2041    1.2562   -0.3783 C   0  0  0  0  0  0  0  0  0  0  0  0
    1.3337   -1.0254    0.0810 C   0  0  1  0  0  0  0  0  0  0  0  0
    2.7964   -0.5698    0.3813 C   0  0  2  0  0  0  0  0  0  0  0  0
    2.9788    0.6185    1.3579 C   0  0  0  0  0  0  0  0  0  0  0  0
    0.5211   -1.3657    1.3046 C   0  0  0  0  0  0  0  0  0  0  0  0
    1.0916   -1.7652    2.3556 O   0  0  0  0  0  0  0  0  0  0  0  0
   -0.9508   -1.3199    1.2696 C   0  0  0  0  0  0  0  0  0  0  0  0
   -1.6607   -1.0581    0.1392 C   0  0  0  0  0  0  0  0  0  0  0  0
   -3.1870   -0.7878    0.1847 C   0  0  1  0  0  0  0  0  0  0  0  0
   -3.9293   -1.8871   -0.6222 C   0  0  0  0  0  0  0  0  0  0  0  0
   -3.7552   -0.8656    1.6020 C   0  0  0  0  0  0  0  0  0  0  0  0
   -4.5641    0.0519    2.1484 C   0  0  0  0  0  0  0  0  0  0  0  0
   -5.0444   -0.1530    3.4940 C   0  0  0  0  0  0  0  0  0  0  0  0
   -5.4294   -0.3172    4.5728 N   0  0  0  0  0  0  0  0  0  0  0  0
   -5.0077    1.2419    1.3975 C   0  0  0  0  0  0  0  0  0  0  0  0
   -5.7051    2.1148    1.9864 O   0  0  0  0  0  0  0  0  0  0  0  0
   -4.7318    1.3642   -0.0887 C   0  0  0  0  0  0  0  0  0  0  0  0
   -4.6330    2.8656   -0.4670 C   0  0  0  0  0  0  0  0  0  0  0  0
   -5.9427    0.7611   -0.8385 C   0  0  0  0  0  0  0  0  0  0  0  0
   -3.3574    0.6562   -0.3925 C   0  0  2  0  0  0  0  0  0  0  0  0
   -2.8761    0.7873   -1.8608 C   0  0  0  0  0  0  0  0  0  0  0  0
   -1.7699   -0.1987   -2.3088 C   0  0  0  0  0  0  0  0  0  0  0  0
   -0.8979   -0.9236   -1.2045 C   0  0  1  0  0  0  0  0  0  0  0  0
   -0.6915   -2.3890   -1.7145 C   0  0  0  0  0  0  0  0  0  0  0  0
    3.9863   -1.7166   -1.5452 C   0  0  0  0  0  0  0  0  0  0  0  0
    4.3723   -2.7794   -0.7316 O   0  0  0  0  0  0  0  0  0  0  0  0
    4.0126   -1.8692   -2.7973 O   0  0  0  0  0  0  0  0  0  0  0  0
    4.7709    2.7896    1.3283 H   0  0  0  0  0  0  0  0  0  0  0  0
    5.8089    2.2248    2.6842 H   0  0  0  0  0  0  0  0  0  0  0  0
    4.0627    2.5631    2.9683 H   0  0  0  0  0  0  0  0  0  0  0  0
    5.6161   -0.1250    3.5657 H   0  0  0  0  0  0  0  0  0  0  0  0
    4.2987   -1.2114    3.0019 H   0  0  0  0  0  0  0  0  0  0  0  0
    3.9025    0.2459    3.9773 H   0  0  0  0  0  0  0  0  0  0  0  0
    5.6246   -0.9475    0.9621 H   0  0  0  0  0  0  0  0  0  0  0  0
    6.4613    0.6192    0.9651 H   0  0  0  0  0  0  0  0  0  0  0  0
    4.8765    1.4788   -0.7474 H   0  0  0  0  0  0  0  0  0  0  0  0
    5.7823    0.0680   -1.3173 H   0  0  0  0  0  0  0  0  0  0  0  0
    3.3761    0.5547   -2.9118 H   0  0  0  0  0  0  0  0  0  0  0  0
    2.7769    1.5551   -1.6044 H   0  0  0  0  0  0  0  0  0  0  0  0
    0.9448    0.7117   -2.9323 H   0  0  0  0  0  0  0  0  0  0  0  0
    1.4903   -0.9728   -2.7631 H   0  0  0  0  0  0  0  0  0  0  0  0
    1.0745    1.9206   -0.3401 H   0  0  0  0  0  0  0  0  0  0  0  0
   -0.4967    1.7981   -1.0352 H   0  0  0  0  0  0  0  0  0  0  0  0
   -0.2256    1.2208    0.6428 H   0  0  0  0  0  0  0  0  0  0  0  0
    1.5069   -2.0062   -0.4037 H   0  0  0  0  0  0  0  0  0  0  0  0
    3.2352   -1.4333    0.9284 H   0  0  0  0  0  0  0  0  0  0  0  0
    2.2586    0.5614    2.2013 H   0  0  0  0  0  0  0  0  0  0  0  0
    2.7670    1.5623    0.8289 H   0  0  0  0  0  0  0  0  0  0  0  0
   -1.4248   -1.4353    2.2307 H   0  0  0  0  0  0  0  0  0  0  0  0
   -3.9700   -1.6838   -1.7072 H   0  0  0  0  0  0  0  0  0  0  0  0
   -3.4437   -2.8732   -0.4620 H   0  0  0  0  0  0  0  0  0  0  0  0
   -4.9749   -2.0256   -0.2823 H   0  0  0  0  0  0  0  0  0  0  0  0
   -3.5793   -1.7804    2.1595 H   0  0  0  0  0  0  0  0  0  0  0  0
   -4.5000    2.9937   -1.5617 H   0  0  0  0  0  0  0  0  0  0  0  0
   -5.5604    3.4128   -0.1910 H   0  0  0  0  0  0  0  0  0  0  0  0
   -3.7795    3.3502    0.0546 H   0  0  0  0  0  0  0  0  0  0  0  0
   -6.1880   -0.2536   -0.4797 H   0  0  0  0  0  0  0  0  0  0  0  0
   -6.8496    1.3764   -0.6511 H   0  0  0  0  0  0  0  0  0  0  0  0
   -5.7950    0.7340   -1.9347 H   0  0  0  0  0  0  0  0  0  0  0  0
   -2.6252    1.2675    0.1867 H   0  0  0  0  0  0  0  0  0  0  0  0
   -2.5159    1.8245   -2.0301 H   0  0  0  0  0  0  0  0  0  0  0  0
   -3.7256    0.6652   -2.5598 H   0  0  0  0  0  0  0  0  0  0  0  0
   -1.1368    0.3265   -3.0435 H   0  0  0  0  0  0  0  0  0  0  0  0
   -2.2727   -0.9491   -2.9565 H   0  0  0  0  0  0  0  0  0  0  0  0
   -1.6606   -2.8605   -1.9766 H   0  0  0  0  0  0  0  0  0  0  0  0
   -0.2600   -3.0619   -0.9469 H   0  0  0  0  0  0  0  0  0  0  0  0
   -0.0770   -2.4345   -2.6328 H   0  0  0  0  0  0  0  0  0  0  0  0
    4.6346   -3.6725   -1.1310 H   0  0  0  0  0  0  0  0  0  0  0  0
  1  2  1  0
  2  3  1  0
  2  4  1  0
  4  5  1  0
  5  6  1  0
  6  7  1  0
  7  8  1  0
  8  9  1  0
  9 10  1  1
  9 11  1  0
 11 12  1  0
 12 13  1  0
 11 14  1  0
 14 15  2  0
 14 16  1  0
 16 17  2  0
 17 18  1  0
 18 19  1  6
 18 20  1  0
 20 21  2  0
 21 22  1  0
 22 23  3  0
 21 24  1  0
 24 25  2  0
 24 26  1  0
 26 27  1  0
 26 28  1  0
 26 29  1  0
 29 30  1  0
 30 31  1  0
 31 32  1  0
 32 33  1  6
  6 34  1  6
 34 35  1  0
 34 36  2  0
 13  2  1  0
 32 17  1  0
 12  6  1  0
 29 18  1  0
 32  9  1  0
  1 37  1  0
  1 38  1  0
  1 39  1  0
  3 40  1  0
  3 41  1  0
  3 42  1  0
  4 43  1  0
  4 44  1  0
  5 45  1  0
  5 46  1  0
  7 47  1  0
  7 48  1  0
  8 49  1  0
  8 50  1  0
 10 51  1  0
 10 52  1  0
 10 53  1  0
 11 54  1  6
 12 55  1  1
 13 56  1  0
 13 57  1  0
 16 58  1  0
 19 59  1  0
 19 60  1  0
 19 61  1  0
 20 62  1  0
 27 63  1  0
 27 64  1  0
 27 65  1  0
 28 66  1  0
 28 67  1  0
 28 68  1  0
 29 69  1  1
 30 70  1  0
 30 71  1  0
 31 72  1  0
 31 73  1  0
 33 74  1  0
 33 75  1  0
 33 76  1  0
 35 77  1  0
M  END
$$$$
