
     RDKit          3D

 56 59  0  0  0  0  0  0  0  0999 V2000
    1.0516    0.8016    0.4593 C   0  0  2  0  0  0  0  0  0  0  0  0
    1.8992    2.0356    0.1599 C   0  0  0  0  0  0  0  0  0  0  0  0
    3.2556    1.5962    0.6313 C   0  0  0  0  0  0  0  0  0  0  0  0
    4.2271    2.4675    0.9371 C   0  0  0  0  0  0  0  0  0  0  0  0
    3.3182    0.1075    0.9231 C   0  0  2  0  0  0  0  0  0  0  0  0
    3.2427   -0.0208    2.3274 O   0  0  0  0  0  0  0  0  0  0  0  0
    4.5971   -0.5739    0.4043 C   0  0  0  0  0  0  0  0  0  0  0  0
    5.4521   -0.0093   -0.7010 C   0  0  0  0  0  0  0  0  0  0  0  0
    4.9201   -1.6575    0.8683 O   0  0  0  0  0  0  0  0  0  0  0  0
    1.9997   -0.3979    0.2281 C   0  0  2  0  0  0  0  0  0  0  0  0
    2.2686   -0.6639   -1.2937 C   0  0  0  0  0  0  0  0  0  0  0  0
    1.3304   -1.6493    0.8508 C   0  0  0  0  0  0  0  0  0  0  0  0
   -0.0774   -1.9020    0.2557 C   0  0  0  0  0  0  0  0  0  0  0  0
   -1.0020   -0.6448    0.3318 C   0  0  1  0  0  0  0  0  0  0  0  0
   -0.3133    0.6314   -0.2435 C   0  0  1  0  0  0  0  0  0  0  0  0
   -1.1938    1.8400   -0.0488 C   0  0  0  0  0  0  0  0  0  0  0  0
   -2.5371    1.7722   -0.0082 C   0  0  0  0  0  0  0  0  0  0  0  0
   -3.3149    3.0645    0.0907 C   0  0  0  0  0  0  0  0  0  0  0  0
   -3.2426    0.4439   -0.0062 C   0  0  0  0  0  0  0  0  0  0  0  0
   -4.5794    0.3874    0.1832 C   0  0  0  0  0  0  0  0  0  0  0  0
   -5.3188   -0.8824    0.2316 C   0  0  0  0  0  0  0  0  0  0  0  0
   -6.5708   -0.8648    0.3688 O   0  0  0  0  0  0  0  0  0  0  0  0
   -4.6150   -2.1919    0.0851 C   0  0  0  0  0  0  0  0  0  0  0  0
   -3.1280   -2.0574    0.4262 C   0  0  0  0  0  0  0  0  0  0  0  0
   -2.4400   -0.8406   -0.2707 C   0  0  2  0  0  0  0  0  0  0  0  0
   -2.3998   -1.0812   -1.8026 C   0  0  0  0  0  0  0  0  0  0  0  0
    0.8278    0.8608    1.5538 H   0  0  0  0  0  0  0  0  0  0  0  0
    1.9190    2.2751   -0.9246 H   0  0  0  0  0  0  0  0  0  0  0  0
    1.5405    2.9115    0.7436 H   0  0  0  0  0  0  0  0  0  0  0  0
    5.1648    2.1249    1.3629 H   0  0  0  0  0  0  0  0  0  0  0  0
    4.0879    3.5306    0.7681 H   0  0  0  0  0  0  0  0  0  0  0  0
    3.3195   -0.9799    2.5678 H   0  0  0  0  0  0  0  0  0  0  0  0
    4.9936    0.8756   -1.1845 H   0  0  0  0  0  0  0  0  0  0  0  0
    5.5989   -0.7817   -1.4850 H   0  0  0  0  0  0  0  0  0  0  0  0
    6.4427    0.2776   -0.2910 H   0  0  0  0  0  0  0  0  0  0  0  0
    1.3598   -0.9044   -1.8734 H   0  0  0  0  0  0  0  0  0  0  0  0
    2.7395    0.2110   -1.7858 H   0  0  0  0  0  0  0  0  0  0  0  0
    2.9440   -1.5363   -1.4191 H   0  0  0  0  0  0  0  0  0  0  0  0
    1.2072   -1.5216    1.9477 H   0  0  0  0  0  0  0  0  0  0  0  0
    1.9700   -2.5438    0.6883 H   0  0  0  0  0  0  0  0  0  0  0  0
    0.0113   -2.2695   -0.7845 H   0  0  0  0  0  0  0  0  0  0  0  0
   -0.5232   -2.7292    0.8455 H   0  0  0  0  0  0  0  0  0  0  0  0
   -1.1483   -0.4588    1.4225 H   0  0  0  0  0  0  0  0  0  0  0  0
   -0.1485    0.5447   -1.3322 H   0  0  0  0  0  0  0  0  0  0  0  0
   -0.7176    2.8125   -0.0583 H   0  0  0  0  0  0  0  0  0  0  0  0
   -2.6700    3.9604   -0.0379 H   0  0  0  0  0  0  0  0  0  0  0  0
   -3.8005    3.1326    1.0867 H   0  0  0  0  0  0  0  0  0  0  0  0
   -4.0882    3.1002   -0.7052 H   0  0  0  0  0  0  0  0  0  0  0  0
   -5.1599    1.2848    0.3448 H   0  0  0  0  0  0  0  0  0  0  0  0
   -5.0756   -2.9380    0.7684 H   0  0  0  0  0  0  0  0  0  0  0  0
   -4.7441   -2.5642   -0.9527 H   0  0  0  0  0  0  0  0  0  0  0  0
   -3.0334   -1.9561    1.5306 H   0  0  0  0  0  0  0  0  0  0  0  0
   -2.6344   -3.0080    0.1322 H   0  0  0  0  0  0  0  0  0  0  0  0
   -3.4258   -1.1625   -2.2170 H   0  0  0  0  0  0  0  0  0  0  0  0
   -1.9245   -0.2399   -2.3436 H   0  0  0  0  0  0  0  0  0  0  0  0
   -1.8620   -2.0185   -2.0515 H   0  0  0  0  0  0  0  0  0  0  0  0
  1  2  1  0
  2  3  1  0
  3  4  2  3
  3  5  1  0
  5  6  1  1
  5  7  1  0
  7  8  1  0
  7  9  2  0
  5 10  1  0
 10 11  1  6
 10 12  1  0
 12 13  1  0
 13 14  1  0
 14 15  1  0
 15 16  1  0
 16 17  2  0
 17 18  1  0
 17 19  1  0
 19 20  2  0
 20 21  1  0
 21 22  2  0
 21 23  1  0
 23 24  1  0
 24 25  1  0
 25 26  1  6
 10  1  1  0
 25 14  1  0
 15  1  1  0
 25 19  1  0
  1 27  1  1
  2 28  1  0
  2 29  1  0
  4 30  1  0
  4 31  1  0
  6 32  1  0
  8 33  1  0
  8 34  1  0
  8 35  1  0
 11 36  1  0
 11 37  1  0
 11 38  1  0
 12 39  1  0
 12 40  1  0
 13 41  1  0
 13 42  1  0
 14 43  1  1
 15 44  1  6
 16 45  1  0
 18 46  1  0
 18 47  1  0
 18 48  1  0
 20 49  1  0
 23 50  1  0
 23 51  1  0
 24 52  1  0
 24 53  1  0
 26 54  1  0
 26 55  1  0
 26 56  1  0
M  END
$$$$
