
     RDKit          3D

 36 38  0  0  0  0  0  0  0  0999 V2000
   -3.2147    1.7188    0.6375 C   0  0  0  0  0  0  0  0  0  0  0  0
   -3.3337    0.5126   -0.3230 C   0  0  0  0  0  0  0  0  0  0  0  0
   -4.5149    0.7696   -1.2795 C   0  0  0  0  0  0  0  0  0  0  0  0
   -2.0261    0.3690   -1.1636 C   0  0  0  0  0  0  0  0  0  0  0  0
   -0.8784   -0.1296   -0.3313 C   0  0  0  0  0  0  0  0  0  0  0  0
   -1.0837   -0.9135    0.7888 C   0  0  0  0  0  0  0  0  0  0  0  0
    0.4036   -1.3396    1.4426 S   0  0  0  0  0  0  0  0  0  0  0  0
    1.2591   -0.5111    0.2366 C   0  0  0  0  0  0  0  0  0  0  0  0
    0.4247    0.0840   -0.6508 N   0  0  0  0  0  0  0  0  0  0  0  0
    2.6958   -0.4400    0.1365 N   0  0  0  0  0  0  0  0  0  0  0  0
    3.3020    0.1158   -1.0802 C   0  0  0  0  0  0  0  0  0  0  0  0
    4.7244    0.6058   -0.7961 C   0  0  0  0  0  0  0  0  0  0  0  0
    5.4811   -0.3978   -0.1501 O   0  0  0  0  0  0  0  0  0  0  0  0
    4.9429   -0.6382    1.1344 C   0  0  0  0  0  0  0  0  0  0  0  0
    3.5383   -1.2410    1.0344 C   0  0  0  0  0  0  0  0  0  0  0  0
   -2.4192   -1.2430    1.2860 C   0  0  0  0  0  0  0  0  0  0  0  0
   -2.5654   -1.9356    2.3277 O   0  0  0  0  0  0  0  0  0  0  0  0
   -3.6163   -0.7909    0.4901 C   0  0  0  0  0  0  0  0  0  0  0  0
   -2.3738    1.5859    1.3502 H   0  0  0  0  0  0  0  0  0  0  0  0
   -4.1484    1.8430    1.2273 H   0  0  0  0  0  0  0  0  0  0  0  0
   -3.0369    2.6565    0.0680 H   0  0  0  0  0  0  0  0  0  0  0  0
   -5.4626    0.8849   -0.7100 H   0  0  0  0  0  0  0  0  0  0  0  0
   -4.6382   -0.0768   -1.9891 H   0  0  0  0  0  0  0  0  0  0  0  0
   -4.3462    1.6957   -1.8707 H   0  0  0  0  0  0  0  0  0  0  0  0
   -1.7535    1.3437   -1.6245 H   0  0  0  0  0  0  0  0  0  0  0  0
   -2.1852   -0.3610   -1.9869 H   0  0  0  0  0  0  0  0  0  0  0  0
    3.3297   -0.6709   -1.8648 H   0  0  0  0  0  0  0  0  0  0  0  0
    2.7068    0.9747   -1.4591 H   0  0  0  0  0  0  0  0  0  0  0  0
    5.2152    0.8515   -1.7614 H   0  0  0  0  0  0  0  0  0  0  0  0
    4.7012    1.5449   -0.1964 H   0  0  0  0  0  0  0  0  0  0  0  0
    4.9249    0.2931    1.7461 H   0  0  0  0  0  0  0  0  0  0  0  0
    5.6017   -1.3586    1.6637 H   0  0  0  0  0  0  0  0  0  0  0  0
    3.6049   -2.2788    0.6422 H   0  0  0  0  0  0  0  0  0  0  0  0
    3.1056   -1.2725    2.0569 H   0  0  0  0  0  0  0  0  0  0  0  0
   -4.4793   -0.6352    1.1744 H   0  0  0  0  0  0  0  0  0  0  0  0
   -3.8856   -1.6151   -0.2058 H   0  0  0  0  0  0  0  0  0  0  0  0
  1  2  1  0
  2  3  1  0
  2  4  1  0
  4  5  1  0
  5  6  2  0
  6  7  1  0
  7  8  1  0
  8  9  2  0
  8 10  1  0
 10 11  1  0
 11 12  1  0
 12 13  1  0
 13 14  1  0
 14 15  1  0
  6 16  1  0
 16 17  2  0
 16 18  1  0
 18  2  1  0
  9  5  1  0
 15 10  1  0
  1 19  1  0
  1 20  1  0
  1 21  1  0
  3 22  1  0
  3 23  1  0
  3 24  1  0
  4 25  1  0
  4 26  1  0
 11 27  1  0
 11 28  1  0
 12 29  1  0
 12 30  1  0
 14 31  1  0
 14 32  1  0
 15 33  1  0
 15 34  1  0
 18 35  1  0
 18 36  1  0
M  END
$$$$
