
     RDKit          3D

 49 50  0  0  0  0  0  0  0  0999 V2000
   -0.3082   -1.3738    1.9168 C   0  0  0  0  0  0  0  0  0  0  0  0
   -0.5991   -0.0846    1.1877 C   0  0  0  0  0  0  0  0  0  0  0  0
    0.4527    0.6379    0.5729 C   0  0  0  0  0  0  0  0  0  0  0  0
    1.8143    0.1832    0.6787 N   0  0  0  0  0  0  0  0  0  0  0  0
    2.7433    0.2055   -0.4157 C   0  0  0  0  0  0  0  0  0  0  0  0
    2.3416    0.4755   -1.5806 O   0  0  0  0  0  0  0  0  0  0  0  0
    4.1253   -0.1041   -0.1760 N   0  0  0  0  0  0  0  0  0  0  0  0
    5.1226   -0.1863   -1.2098 C   0  0  0  0  0  0  0  0  0  0  0  0
    4.7844   -0.1247   -2.4229 O   0  0  0  0  0  0  0  0  0  0  0  0
    6.5547   -0.3341   -0.8561 C   0  0  0  0  0  0  0  0  0  0  0  0
    7.0618    0.3607    0.2574 C   0  0  0  0  0  0  0  0  0  0  0  0
    8.4101    0.2584    0.6073 C   0  0  0  0  0  0  0  0  0  0  0  0
    9.2717   -0.5386   -0.1484 C   0  0  0  0  0  0  0  0  0  0  0  0
   10.9644   -0.6657    0.2941 Cl  0  0  0  0  0  0  0  0  0  0  0  0
    8.7837   -1.2368   -1.2556 C   0  0  0  0  0  0  0  0  0  0  0  0
    7.4336   -1.1418   -1.6167 C   0  0  0  0  0  0  0  0  0  0  0  0
    6.8819   -2.0987   -2.9890 Cl  0  0  0  0  0  0  0  0  0  0  0  0
    0.1678    1.8400   -0.0936 C   0  0  0  0  0  0  0  0  0  0  0  0
   -1.1367    2.3223   -0.1574 C   0  0  0  0  0  0  0  0  0  0  0  0
   -2.1742    1.6241    0.4564 C   0  0  0  0  0  0  0  0  0  0  0  0
   -1.9195    0.4198    1.1408 C   0  0  0  0  0  0  0  0  0  0  0  0
   -2.9434   -0.2938    1.7916 O   0  0  0  0  0  0  0  0  0  0  0  0
   -4.3382    0.0072    1.7399 C   0  0  0  0  0  0  0  0  0  0  0  0
   -4.9308   -0.4127    0.3910 C   0  0  0  0  0  0  0  0  0  0  0  0
   -6.4307   -0.1034    0.3280 C   0  0  0  0  0  0  0  0  0  0  0  0
   -7.0227   -0.5274   -1.0192 C   0  0  0  0  0  0  0  0  0  0  0  0
   -8.4846   -0.2150   -1.0699 C   0  0  0  0  0  0  0  0  0  0  0  0
   -8.9109    1.0368   -1.5023 O   0  0  0  0  0  0  0  0  0  0  0  0
   -9.3270   -1.0691   -0.6841 O   0  0  0  0  0  0  0  0  0  0  0  0
   -1.2140   -2.0064    2.0206 H   0  0  0  0  0  0  0  0  0  0  0  0
    0.4381   -1.9770    1.3580 H   0  0  0  0  0  0  0  0  0  0  0  0
    0.0874   -1.1459    2.9285 H   0  0  0  0  0  0  0  0  0  0  0  0
    2.1344   -0.2315    1.5825 H   0  0  0  0  0  0  0  0  0  0  0  0
    4.4127   -0.3014    0.8087 H   0  0  0  0  0  0  0  0  0  0  0  0
    6.4193    1.0025    0.8473 H   0  0  0  0  0  0  0  0  0  0  0  0
    8.7848    0.8039    1.4641 H   0  0  0  0  0  0  0  0  0  0  0  0
    9.4542   -1.8609   -1.8333 H   0  0  0  0  0  0  0  0  0  0  0  0
    0.9627    2.4220   -0.5419 H   0  0  0  0  0  0  0  0  0  0  0  0
   -1.3426    3.2527   -0.6710 H   0  0  0  0  0  0  0  0  0  0  0  0
   -3.1693    2.0405    0.3991 H   0  0  0  0  0  0  0  0  0  0  0  0
   -4.8421   -0.5688    2.5451 H   0  0  0  0  0  0  0  0  0  0  0  0
   -4.5150    1.0842    1.9466 H   0  0  0  0  0  0  0  0  0  0  0  0
   -4.7694   -1.5041    0.2519 H   0  0  0  0  0  0  0  0  0  0  0  0
   -4.4105    0.1220   -0.4317 H   0  0  0  0  0  0  0  0  0  0  0  0
   -6.9537   -0.6459    1.1467 H   0  0  0  0  0  0  0  0  0  0  0  0
   -6.5868    0.9890    0.4709 H   0  0  0  0  0  0  0  0  0  0  0  0
   -6.5088    0.0128   -1.8437 H   0  0  0  0  0  0  0  0  0  0  0  0
   -6.8725   -1.6186   -1.1723 H   0  0  0  0  0  0  0  0  0  0  0  0
   -9.8965    1.2698   -1.5272 H   0  0  0  0  0  0  0  0  0  0  0  0
  1  2  1  0
  2  3  2  0
  3  4  1  0
  4  5  1  0
  5  6  2  0
  5  7  1  0
  7  8  1  0
  8  9  2  0
  8 10  1  0
 10 11  2  0
 11 12  1  0
 12 13  2  0
 13 14  1  0
 13 15  1  0
 15 16  2  0
 16 17  1  0
  3 18  1  0
 18 19  2  0
 19 20  1  0
 20 21  2  0
 21 22  1  0
 22 23  1  0
 23 24  1  0
 24 25  1  0
 25 26  1  0
 26 27  1  0
 27 28  1  0
 27 29  2  0
 21  2  1  0
 16 10  1  0
  1 30  1  0
  1 31  1  0
  1 32  1  0
  4 33  1  0
  7 34  1  0
 11 35  1  0
 12 36  1  0
 15 37  1  0
 18 38  1  0
 19 39  1  0
 20 40  1  0
 23 41  1  0
 23 42  1  0
 24 43  1  0
 24 44  1  0
 25 45  1  0
 25 46  1  0
 26 47  1  0
 26 48  1  0
 28 49  1  0
M  END
$$$$
