
     RDKit          3D

 56 57  0  0  0  0  0  0  0  0999 V2000
   -2.3721    1.1539    0.3843 C   0  0  1  0  0  0  0  0  0  0  0  0
   -1.4525    1.1377   -0.7606 N   0  0  0  0  0  0  0  0  0  0  0  0
   -1.4492    0.0795   -1.7298 C   0  0  0  0  0  0  0  0  0  0  0  0
   -2.4182   -0.7241   -1.8004 O   0  0  0  0  0  0  0  0  0  0  0  0
   -0.2804   -0.0863   -2.6557 C   0  0  0  0  0  0  0  0  0  0  0  0
    0.9590   -0.3089   -1.8765 N   0  0  0  0  0  0  0  0  0  0  0  0
    1.8190    0.7459   -1.6561 C   0  0  0  0  0  0  0  0  0  0  0  0
    1.6131    1.8637   -2.2062 O   0  0  0  0  0  0  0  0  0  0  0  0
    2.9223    0.6093   -0.7946 C   0  0  0  0  0  0  0  0  0  0  0  0
    3.7893    1.7293   -0.5450 N   0  0  0  0  0  0  0  0  0  0  0  0
    4.5069    2.0289    1.0070 S   0  0  0  0  0  6  0  0  0  0  0  0
    5.6288    1.0576    1.2431 O   0  0  0  0  0  0  0  0  0  0  0  0
    5.0669    3.4238    1.0259 O   0  0  0  0  0  0  0  0  0  0  0  0
    3.3209    1.8744    2.2688 N   0  0  0  0  0  0  0  0  0  0  0  0
    2.2013    2.7751    2.0037 C   0  0  0  0  0  0  0  0  0  0  0  0
    3.1511   -0.6240   -0.1817 C   0  0  0  0  0  0  0  0  0  0  0  0
    2.2953   -1.6888   -0.4206 C   0  0  0  0  0  0  0  0  0  0  0  0
    1.1976   -1.5282   -1.2734 C   0  0  0  0  0  0  0  0  0  0  0  0
    0.3095   -2.6963   -1.4689 C   0  0  0  0  0  0  0  0  0  0  0  0
   -0.4561   -3.1830   -0.3976 C   0  0  0  0  0  0  0  0  0  0  0  0
   -1.2854   -4.2946   -0.5736 C   0  0  0  0  0  0  0  0  0  0  0  0
   -1.3408   -4.9373   -1.8136 C   0  0  0  0  0  0  0  0  0  0  0  0
   -0.5603   -4.4742   -2.8768 C   0  0  0  0  0  0  0  0  0  0  0  0
    0.2694   -3.3619   -2.7044 C   0  0  0  0  0  0  0  0  0  0  0  0
   -2.0048    0.0297    1.3948 C   0  0  0  0  0  0  0  0  0  0  0  0
   -3.0074   -0.0430    2.5551 C   0  0  0  0  0  0  0  0  0  0  0  0
   -0.5680    0.1395    1.9323 C   0  0  0  0  0  0  0  0  0  0  0  0
   -2.3900    2.5346    1.0268 C   0  0  0  0  0  0  0  0  0  0  0  0
   -1.3330    3.0781    1.3135 O   0  0  0  0  0  0  0  0  0  0  0  0
   -3.6724    3.2702    1.3228 C   0  0  0  0  0  0  0  0  0  0  0  0
   -4.7861    2.4929    1.0603 F   0  0  0  0  0  0  0  0  0  0  0  0
   -3.6936    3.6326    2.6570 F   0  0  0  0  0  0  0  0  0  0  0  0
   -3.7315    4.4122    0.5460 F   0  0  0  0  0  0  0  0  0  0  0  0
   -3.3880    0.9322   -0.0064 H   0  0  0  0  0  0  0  0  0  0  0  0
   -0.7164    1.8749   -0.8397 H   0  0  0  0  0  0  0  0  0  0  0  0
   -0.2108    0.8141   -3.3016 H   0  0  0  0  0  0  0  0  0  0  0  0
   -0.4600   -0.9231   -3.3601 H   0  0  0  0  0  0  0  0  0  0  0  0
    3.8387    2.5049   -1.2425 H   0  0  0  0  0  0  0  0  0  0  0  0
    2.9567    0.8949    2.2426 H   0  0  0  0  0  0  0  0  0  0  0  0
    2.5533    3.8273    1.9540 H   0  0  0  0  0  0  0  0  0  0  0  0
    1.4677    2.6996    2.8332 H   0  0  0  0  0  0  0  0  0  0  0  0
    1.6874    2.5050    1.0558 H   0  0  0  0  0  0  0  0  0  0  0  0
    3.9970   -0.7724    0.4740 H   0  0  0  0  0  0  0  0  0  0  0  0
    2.4865   -2.6412    0.0597 H   0  0  0  0  0  0  0  0  0  0  0  0
   -0.4106   -2.7012    0.5706 H   0  0  0  0  0  0  0  0  0  0  0  0
   -1.8817   -4.6602    0.2523 H   0  0  0  0  0  0  0  0  0  0  0  0
   -1.9821   -5.7987   -1.9483 H   0  0  0  0  0  0  0  0  0  0  0  0
   -0.5954   -4.9793   -3.8334 H   0  0  0  0  0  0  0  0  0  0  0  0
    0.8792   -3.0188   -3.5313 H   0  0  0  0  0  0  0  0  0  0  0  0
   -2.0785   -0.9388    0.8552 H   0  0  0  0  0  0  0  0  0  0  0  0
   -2.7911   -0.9288    3.1899 H   0  0  0  0  0  0  0  0  0  0  0  0
   -2.9491    0.8673    3.1887 H   0  0  0  0  0  0  0  0  0  0  0  0
   -4.0418   -0.1442    2.1632 H   0  0  0  0  0  0  0  0  0  0  0  0
    0.1619    0.2116    1.0994 H   0  0  0  0  0  0  0  0  0  0  0  0
   -0.3167   -0.7669    2.5231 H   0  0  0  0  0  0  0  0  0  0  0  0
   -0.4550    1.0237    2.5926 H   0  0  0  0  0  0  0  0  0  0  0  0
  1  2  1  0
  2  3  1  0
  3  4  2  0
  3  5  1  0
  5  6  1  0
  6  7  1  0
  7  8  2  0
  7  9  1  0
  9 10  1  0
 10 11  1  0
 11 12  2  0
 11 13  2  0
 11 14  1  0
 14 15  1  0
  9 16  2  0
 16 17  1  0
 17 18  2  0
 18 19  1  0
 19 20  2  0
 20 21  1  0
 21 22  2  0
 22 23  1  0
 23 24  2  0
  1 25  1  0
 25 26  1  0
 25 27  1  0
  1 28  1  0
 28 29  2  0
 28 30  1  0
 30 31  1  0
 30 32  1  0
 30 33  1  0
 18  6  1  0
 24 19  1  0
  1 34  1  6
  2 35  1  0
  5 36  1  0
  5 37  1  0
 10 38  1  0
 14 39  1  0
 15 40  1  0
 15 41  1  0
 15 42  1  0
 16 43  1  0
 17 44  1  0
 20 45  1  0
 21 46  1  0
 22 47  1  0
 23 48  1  0
 24 49  1  0
 25 50  1  0
 26 51  1  0
 26 52  1  0
 26 53  1  0
 27 54  1  0
 27 55  1  0
 27 56  1  0
M  END
$$$$
