
     RDKit          3D

 42 45  0  0  0  0  0  0  0  0999 V2000
    5.2743   -0.1599   -1.2193 C   0  0  2  0  0  0  0  0  0  0  0  0
    5.5135   -1.5263   -0.5798 C   0  0  0  0  0  0  0  0  0  0  0  0
    5.6384    0.9526   -0.4836 C   0  0  0  0  0  0  0  0  0  0  0  0
    4.1872    0.5903   -0.5235 N   0  0  0  0  0  0  0  0  0  0  0  0
    2.8225    0.7998   -0.1685 C   0  0  0  0  0  0  0  0  0  0  0  0
    2.4955    1.8387    0.6266 C   0  0  0  0  0  0  0  0  0  0  0  0
    1.0906    2.0947    1.0240 C   0  0  0  0  0  0  0  0  0  0  0  0
    0.8059    3.0854    1.7467 O   0  0  0  0  0  0  0  0  0  0  0  0
    0.0522    1.1672    0.5357 C   0  0  0  0  0  0  0  0  0  0  0  0
    0.3831    0.1182   -0.2809 C   0  0  0  0  0  0  0  0  0  0  0  0
   -0.7925   -0.5437   -0.5934 C   0  0  0  0  0  0  0  0  0  0  0  0
   -0.9441   -1.7587   -1.4658 C   0  0  0  0  0  0  0  0  0  0  0  0
   -0.7370   -2.9226   -0.7141 O   0  0  0  0  0  0  0  0  0  0  0  0
   -1.8034    0.1443    0.0800 C   0  0  0  0  0  0  0  0  0  0  0  0
   -1.2782    1.1882    0.7745 N   0  0  0  0  0  0  0  0  0  0  0  0
   -1.9959    2.1397    1.6251 C   0  0  0  0  0  0  0  0  0  0  0  0
   -3.2424   -0.1884    0.0247 C   0  0  0  0  0  0  0  0  0  0  0  0
   -4.1712    0.7647   -0.4232 C   0  0  0  0  0  0  0  0  0  0  0  0
   -5.5315    0.4470   -0.4842 C   0  0  0  0  0  0  0  0  0  0  0  0
   -5.9720   -0.8230   -0.1014 C   0  0  0  0  0  0  0  0  0  0  0  0
   -5.0525   -1.7773    0.3430 C   0  0  0  0  0  0  0  0  0  0  0  0
   -3.6914   -1.4630    0.4059 C   0  0  0  0  0  0  0  0  0  0  0  0
    1.7798   -0.1281   -0.6770 C   0  0  0  0  0  0  0  0  0  0  0  0
    2.0878   -1.0960   -1.4215 O   0  0  0  0  0  0  0  0  0  0  0  0
    5.2095   -0.0631   -2.3237 H   0  0  0  0  0  0  0  0  0  0  0  0
    5.3421   -1.5121    0.5192 H   0  0  0  0  0  0  0  0  0  0  0  0
    4.8215   -2.2660   -1.0332 H   0  0  0  0  0  0  0  0  0  0  0  0
    6.5572   -1.8470   -0.7788 H   0  0  0  0  0  0  0  0  0  0  0  0
    6.0574    0.8038    0.5348 H   0  0  0  0  0  0  0  0  0  0  0  0
    5.8285    1.8843   -1.0564 H   0  0  0  0  0  0  0  0  0  0  0  0
    3.2711    2.5052    0.9846 H   0  0  0  0  0  0  0  0  0  0  0  0
   -0.2389   -1.7142   -2.3246 H   0  0  0  0  0  0  0  0  0  0  0  0
   -1.9667   -1.7880   -1.8957 H   0  0  0  0  0  0  0  0  0  0  0  0
    0.2429   -3.0040   -0.5783 H   0  0  0  0  0  0  0  0  0  0  0  0
   -1.4656    2.2594    2.5926 H   0  0  0  0  0  0  0  0  0  0  0  0
   -3.0182    1.7785    1.8582 H   0  0  0  0  0  0  0  0  0  0  0  0
   -2.0636    3.1217    1.1121 H   0  0  0  0  0  0  0  0  0  0  0  0
   -3.8410    1.7492   -0.7312 H   0  0  0  0  0  0  0  0  0  0  0  0
   -6.2439    1.1846   -0.8304 H   0  0  0  0  0  0  0  0  0  0  0  0
   -7.0252   -1.0677   -0.1494 H   0  0  0  0  0  0  0  0  0  0  0  0
   -5.3947   -2.7601    0.6406 H   0  0  0  0  0  0  0  0  0  0  0  0
   -2.9908   -2.2083    0.7609 H   0  0  0  0  0  0  0  0  0  0  0  0
  1  2  1  0
  1  3  1  0
  3  4  1  0
  4  5  1  0
  5  6  2  0
  6  7  1  0
  7  8  2  0
  7  9  1  0
  9 10  2  0
 10 11  1  0
 11 12  1  0
 12 13  1  0
 11 14  2  0
 14 15  1  0
 15 16  1  0
 14 17  1  0
 17 18  2  0
 18 19  1  0
 19 20  2  0
 20 21  1  0
 21 22  2  0
 10 23  1  0
 23 24  2  0
  4  1  1  0
 23  5  1  0
 15  9  1  0
 22 17  1  0
  1 25  1  6
  2 26  1  0
  2 27  1  0
  2 28  1  0
  3 29  1  0
  3 30  1  0
  6 31  1  0
 12 32  1  0
 12 33  1  0
 13 34  1  0
 16 35  1  0
 16 36  1  0
 16 37  1  0
 18 38  1  0
 19 39  1  0
 20 40  1  0
 21 41  1  0
 22 42  1  0
M  END
$$$$
