
     RDKit          3D

 22 21  0  0  0  0  0  0  0  0999 V2000
   -2.0895   -0.3922    0.4536 C   0  0  1  0  0  0  0  0  0  0  0  0
   -2.4595   -1.8052    0.3267 N   0  0  0  0  0  0  0  0  0  0  0  0
   -0.7522   -0.1163   -0.2505 C   0  0  0  0  0  0  0  0  0  0  0  0
    0.6304   -0.9141    0.6314 S   0  0  0  0  0  0  0  0  0  0  0  0
    2.1977   -0.0954   -0.7923 As  0  0  0  0  0  3  0  0  0  0  0  0
    2.4443    1.5926    0.1979 C   0  0  0  0  0  0  0  0  0  0  0  0
    3.6938   -1.0255    0.0919 C   0  0  0  0  0  0  0  0  0  0  0  0
   -3.1593    0.4760   -0.1490 C   0  0  0  0  0  0  0  0  0  0  0  0
   -3.4902    1.6841    0.4577 O   0  0  0  0  0  0  0  0  0  0  0  0
   -3.7229    0.1386   -1.2264 O   0  0  0  0  0  0  0  0  0  0  0  0
   -1.9933   -0.1311    1.5323 H   0  0  0  0  0  0  0  0  0  0  0  0
   -3.3849   -1.9463    0.7957 H   0  0  0  0  0  0  0  0  0  0  0  0
   -1.7773   -2.3801    0.8728 H   0  0  0  0  0  0  0  0  0  0  0  0
   -0.7881   -0.4908   -1.2963 H   0  0  0  0  0  0  0  0  0  0  0  0
   -0.5653    0.9790   -0.2710 H   0  0  0  0  0  0  0  0  0  0  0  0
    1.6185    2.2893   -0.0510 H   0  0  0  0  0  0  0  0  0  0  0  0
    3.4094    2.0536   -0.0967 H   0  0  0  0  0  0  0  0  0  0  0  0
    2.4468    1.4016    1.2908 H   0  0  0  0  0  0  0  0  0  0  0  0
    4.6533   -0.5789   -0.2399 H   0  0  0  0  0  0  0  0  0  0  0  0
    3.6082   -0.9333    1.1938 H   0  0  0  0  0  0  0  0  0  0  0  0
    3.6742   -2.0975   -0.1886 H   0  0  0  0  0  0  0  0  0  0  0  0
   -4.1940    2.2918    0.0561 H   0  0  0  0  0  0  0  0  0  0  0  0
  1  2  1  0
  1  3  1  0
  3  4  1  0
  4  5  1  0
  5  6  1  0
  5  7  1  0
  1  8  1  0
  8  9  1  0
  8 10  2  0
  1 11  1  1
  2 12  1  0
  2 13  1  0
  3 14  1  0
  3 15  1  0
  6 16  1  0
  6 17  1  0
  6 18  1  0
  7 19  1  0
  7 20  1  0
  7 21  1  0
  9 22  1  0
M  END
$$$$
