
     RDKit          3D

 14 15  0  0  0  0  0  0  0  0999 V2000
   -0.2996    2.7308    0.1622 O   0  0  0  0  0  0  0  0  0  0  0  0
   -0.5899    1.5075    0.1000 C   0  0  0  0  0  0  0  0  0  0  0  0
   -1.8925    1.0979    0.1089 N   0  0  0  0  0  0  0  0  0  0  0  0
   -2.2194   -0.2334    0.0416 C   0  0  0  0  0  0  0  0  0  0  0  0
   -1.2385   -1.1852   -0.0366 N   0  0  0  0  0  0  0  0  0  0  0  0
    0.0539   -0.7753   -0.0453 C   0  0  0  0  0  0  0  0  0  0  0  0
    0.3933    0.5314    0.0204 C   0  0  0  0  0  0  0  0  0  0  0  0
    1.7258    0.6456   -0.0060 N   0  0  0  0  0  0  0  0  0  0  0  0
    2.1558   -0.6392   -0.0894 C   0  0  0  0  0  0  0  0  0  0  0  0
    1.1473   -1.5538   -0.1164 N   0  0  0  0  0  0  0  0  0  0  0  0
   -3.2600   -0.5296    0.0504 H   0  0  0  0  0  0  0  0  0  0  0  0
   -1.4809   -2.1998   -0.0881 H   0  0  0  0  0  0  0  0  0  0  0  0
    2.3026    1.5152    0.0290 H   0  0  0  0  0  0  0  0  0  0  0  0
    3.2020   -0.9122   -0.1307 H   0  0  0  0  0  0  0  0  0  0  0  0
  1  2  2  0
  2  3  1  0
  3  4  2  0
  4  5  1  0
  5  6  1  0
  6  7  2  0
  7  8  1  0
  8  9  1  0
  9 10  2  0
  7  2  1  0
 10  6  1  0
  4 11  1  0
  5 12  1  0
  8 13  1  0
  9 14  1  0
M  END
$$$$
