
     RDKit          3D

 85 89  0  0  0  0  0  0  0  0999 V2000
    0.1095   -7.0814   -2.2561 C   0  0  0  0  0  0  0  0  0  0  0  0
   -0.4105   -5.8378   -1.5417 C   0  0  0  0  0  0  0  0  0  0  0  0
    0.6272   -5.2957   -0.6356 N   0  0  0  0  0  0  0  0  0  0  0  0
    0.5466   -5.9062    0.7124 C   0  0  0  0  0  0  0  0  0  0  0  0
    1.7842   -5.5978    1.5552 C   0  0  0  0  0  0  0  0  0  0  0  0
    0.6464   -3.8118   -0.6287 C   0  0  0  0  0  0  0  0  0  0  0  0
   -0.6038   -3.1670    0.0020 C   0  0  0  0  0  0  0  0  0  0  0  0
   -0.5978   -1.7170   -0.2450 N   0  0  0  0  0  0  0  0  0  0  0  0
   -1.5461   -1.1458   -1.2171 C   0  0  0  0  0  0  0  0  0  0  0  0
   -2.4926   -0.1893   -0.5408 C   0  0  0  0  0  0  0  0  0  0  0  0
   -3.3166   -0.6364    0.5020 C   0  0  0  0  0  0  0  0  0  0  0  0
   -4.1843    0.2493    1.1464 C   0  0  0  0  0  0  0  0  0  0  0  0
   -4.2485    1.5985    0.7543 C   0  0  0  0  0  0  0  0  0  0  0  0
   -3.4290    2.0395   -0.3003 C   0  0  0  0  0  0  0  0  0  0  0  0
   -2.5616    1.1527   -0.9438 C   0  0  0  0  0  0  0  0  0  0  0  0
   -5.1653    2.5417    1.4439 C   0  0  0  0  0  0  0  0  0  0  0  0
   -5.3180    2.4963    2.8407 C   0  0  0  0  0  0  0  0  0  0  0  0
   -6.1788    3.3852    3.4906 C   0  0  0  0  0  0  0  0  0  0  0  0
   -6.9206    4.3253    2.7563 C   0  0  0  0  0  0  0  0  0  0  0  0
   -6.7489    4.3893    1.3636 C   0  0  0  0  0  0  0  0  0  0  0  0
   -5.8873    3.5014    0.7131 C   0  0  0  0  0  0  0  0  0  0  0  0
   -7.8112    5.3161    3.4628 C   0  0  0  0  0  0  0  0  0  0  0  0
   -8.8650    5.6935    2.6484 F   0  0  0  0  0  0  0  0  0  0  0  0
   -8.3350    4.7648    4.6194 F   0  0  0  0  0  0  0  0  0  0  0  0
   -7.0728    6.4372    3.7925 F   0  0  0  0  0  0  0  0  0  0  0  0
    0.3261   -0.8829    0.4948 C   0  0  0  0  0  0  0  0  0  0  0  0
    0.8374   -1.3182    1.5633 O   0  0  0  0  0  0  0  0  0  0  0  0
    0.6743    0.5153    0.0522 C   0  0  0  0  0  0  0  0  0  0  0  0
    2.0849    0.8194    0.3567 N   0  0  0  0  0  0  0  0  0  0  0  0
    2.4219    1.5565    1.4636 C   0  0  0  0  0  0  0  0  0  0  0  0
    3.7268    1.8070    1.7874 C   0  0  0  0  0  0  0  0  0  0  0  0
    3.8655    2.6166    3.0202 C   0  0  0  0  0  0  0  0  0  0  0  0
    2.4169    2.8038    3.5047 C   0  0  0  0  0  0  0  0  0  0  0  0
    1.4908    2.1675    2.4510 C   0  0  0  0  0  0  0  0  0  0  0  0
    4.7416    1.2982    0.9879 C   0  0  0  0  0  0  0  0  0  0  0  0
    5.9521    1.5104    1.2612 O   0  0  0  0  0  0  0  0  0  0  0  0
    4.4064    0.5592   -0.0996 N   0  0  0  0  0  0  0  0  0  0  0  0
    3.1037    0.3184   -0.4275 C   0  0  0  0  0  0  0  0  0  0  0  0
    2.7804   -0.6855   -1.8900 S   0  0  0  0  0  0  0  0  0  0  0  0
    2.7361    0.7283   -3.0479 C   0  0  0  0  0  0  0  0  0  0  0  0
    4.1100    1.3086   -3.2405 C   0  0  0  0  0  0  0  0  0  0  0  0
    4.4588    2.5299   -2.6387 C   0  0  0  0  0  0  0  0  0  0  0  0
    5.7483    3.0476   -2.7924 C   0  0  0  0  0  0  0  0  0  0  0  0
    6.6974    2.3520   -3.5471 C   0  0  0  0  0  0  0  0  0  0  0  0
    7.9478    2.8551   -3.6941 F   0  0  0  0  0  0  0  0  0  0  0  0
    6.3580    1.1360   -4.1476 C   0  0  0  0  0  0  0  0  0  0  0  0
    5.0700    0.6137   -3.9942 C   0  0  0  0  0  0  0  0  0  0  0  0
    1.0426   -6.8397   -2.8081 H   0  0  0  0  0  0  0  0  0  0  0  0
   -0.6513   -7.4403   -2.9810 H   0  0  0  0  0  0  0  0  0  0  0  0
    0.3156   -7.8963   -1.5321 H   0  0  0  0  0  0  0  0  0  0  0  0
   -1.3443   -6.0871   -0.9886 H   0  0  0  0  0  0  0  0  0  0  0  0
   -0.6863   -5.1022   -2.3306 H   0  0  0  0  0  0  0  0  0  0  0  0
    0.4932   -7.0121    0.6170 H   0  0  0  0  0  0  0  0  0  0  0  0
   -0.3716   -5.5903    1.2513 H   0  0  0  0  0  0  0  0  0  0  0  0
    1.7954   -6.2530    2.4518 H   0  0  0  0  0  0  0  0  0  0  0  0
    2.7070   -5.7842    0.9659 H   0  0  0  0  0  0  0  0  0  0  0  0
    1.7696   -4.5446    1.9046 H   0  0  0  0  0  0  0  0  0  0  0  0
    0.7532   -3.4439   -1.6734 H   0  0  0  0  0  0  0  0  0  0  0  0
    1.5561   -3.4497   -0.1065 H   0  0  0  0  0  0  0  0  0  0  0  0
   -1.5207   -3.6320   -0.4165 H   0  0  0  0  0  0  0  0  0  0  0  0
   -0.6293   -3.3494    1.0966 H   0  0  0  0  0  0  0  0  0  0  0  0
   -0.9888   -0.6584   -2.0442 H   0  0  0  0  0  0  0  0  0  0  0  0
   -2.1516   -1.9414   -1.7018 H   0  0  0  0  0  0  0  0  0  0  0  0
   -3.2836   -1.6717    0.8187 H   0  0  0  0  0  0  0  0  0  0  0  0
   -4.8166   -0.1249    1.9418 H   0  0  0  0  0  0  0  0  0  0  0  0
   -3.4436    3.0754   -0.6147 H   0  0  0  0  0  0  0  0  0  0  0  0
   -1.9345    1.5180   -1.7476 H   0  0  0  0  0  0  0  0  0  0  0  0
   -4.7534    1.7881    3.4342 H   0  0  0  0  0  0  0  0  0  0  0  0
   -6.2603    3.3406    4.5695 H   0  0  0  0  0  0  0  0  0  0  0  0
   -7.2824    5.1260    0.7762 H   0  0  0  0  0  0  0  0  0  0  0  0
   -5.7957    3.5582   -0.3642 H   0  0  0  0  0  0  0  0  0  0  0  0
   -0.0149    1.2254    0.5522 H   0  0  0  0  0  0  0  0  0  0  0  0
    0.4985    0.6500   -1.0310 H   0  0  0  0  0  0  0  0  0  0  0  0
    4.3337    3.5958    2.7814 H   0  0  0  0  0  0  0  0  0  0  0  0
    4.4720    2.0723    3.7759 H   0  0  0  0  0  0  0  0  0  0  0  0
    2.2772    2.2997    4.4862 H   0  0  0  0  0  0  0  0  0  0  0  0
    2.1845    3.8845    3.6246 H   0  0  0  0  0  0  0  0  0  0  0  0
    0.8705    2.9473    1.9591 H   0  0  0  0  0  0  0  0  0  0  0  0
    0.8449    1.3889    2.9110 H   0  0  0  0  0  0  0  0  0  0  0  0
    2.0245    1.4991   -2.6823 H   0  0  0  0  0  0  0  0  0  0  0  0
    2.3513    0.3670   -4.0249 H   0  0  0  0  0  0  0  0  0  0  0  0
    3.7374    3.0744   -2.0419 H   0  0  0  0  0  0  0  0  0  0  0  0
    6.0118    3.9867   -2.3231 H   0  0  0  0  0  0  0  0  0  0  0  0
    7.0934    0.5955   -4.7294 H   0  0  0  0  0  0  0  0  0  0  0  0
    4.8213   -0.3332   -4.4574 H   0  0  0  0  0  0  0  0  0  0  0  0
  1  2  1  0
  2  3  1  0
  3  4  1  0
  4  5  1  0
  3  6  1  0
  6  7  1  0
  7  8  1  0
  8  9  1  0
  9 10  1  0
 10 11  2  0
 11 12  1  0
 12 13  2  0
 13 14  1  0
 14 15  2  0
 13 16  1  0
 16 17  2  0
 17 18  1  0
 18 19  2  0
 19 20  1  0
 20 21  2  0
 19 22  1  0
 22 23  1  0
 22 24  1  0
 22 25  1  0
  8 26  1  0
 26 27  2  0
 26 28  1  0
 28 29  1  0
 29 30  1  0
 30 31  2  0
 31 32  1  0
 32 33  1  0
 33 34  1  0
 31 35  1  0
 35 36  2  0
 35 37  1  0
 37 38  2  0
 38 39  1  0
 39 40  1  0
 40 41  1  0
 41 42  2  0
 42 43  1  0
 43 44  2  0
 44 45  1  0
 44 46  1  0
 46 47  2  0
 15 10  1  0
 21 16  1  0
 38 29  1  0
 47 41  1  0
 34 30  1  0
  1 48  1  0
  1 49  1  0
  1 50  1  0
  2 51  1  0
  2 52  1  0
  4 53  1  0
  4 54  1  0
  5 55  1  0
  5 56  1  0
  5 57  1  0
  6 58  1  0
  6 59  1  0
  7 60  1  0
  7 61  1  0
  9 62  1  0
  9 63  1  0
 11 64  1  0
 12 65  1  0
 14 66  1  0
 15 67  1  0
 17 68  1  0
 18 69  1  0
 20 70  1  0
 21 71  1  0
 28 72  1  0
 28 73  1  0
 32 74  1  0
 32 75  1  0
 33 76  1  0
 33 77  1  0
 34 78  1  0
 34 79  1  0
 40 80  1  0
 40 81  1  0
 42 82  1  0
 43 83  1  0
 46 84  1  0
 47 85  1  0
M  END
$$$$
