
     RDKit          3D

 56 59  0  0  0  0  0  0  0  0999 V2000
   -0.5845   -0.5071   -0.7613 C   0  0  2  0  0  0  0  0  0  0  0  0
   -1.5178   -0.4745   -1.9657 C   0  0  0  0  0  0  0  0  0  0  0  0
   -2.8602   -1.0217   -1.4201 C   0  0  1  0  0  0  0  0  0  0  0  0
   -3.2327   -2.3634   -2.0638 C   0  0  0  0  0  0  0  0  0  0  0  0
   -2.6779   -1.1510    0.1262 C   0  0  2  0  0  0  0  0  0  0  0  0
   -3.9162   -0.9051    0.9802 C   0  0  0  0  0  0  0  0  0  0  0  0
   -3.8532   -1.1604    2.1743 O   0  0  0  0  0  0  0  0  0  0  0  0
   -5.2134   -0.3785    0.4113 C   0  0  0  0  0  0  0  0  0  0  0  0
   -6.2027   -0.2868    1.4021 O   0  0  0  0  0  0  0  0  0  0  0  0
   -1.4883   -0.2102    0.4418 C   0  0  2  0  0  0  0  0  0  0  0  0
   -1.9953    1.2693    0.5007 C   0  0  0  0  0  0  0  0  0  0  0  0
   -0.7012   -0.5743    1.7256 C   0  0  0  0  0  0  0  0  0  0  0  0
    0.6620    0.1713    1.8224 C   0  0  2  0  0  0  0  0  0  0  0  0
    0.4469    1.5190    2.1445 O   0  0  0  0  0  0  0  0  0  0  0  0
    1.5384    0.0206    0.5228 C   0  0  1  0  0  0  0  0  0  0  0  0
    1.8787   -1.3282    0.4629 F   0  0  0  0  0  0  0  0  0  0  0  0
    0.7074    0.3427   -0.7776 C   0  0  1  0  0  0  0  0  0  0  0  0
    1.5337    0.0407   -2.0476 C   0  0  0  0  0  0  0  0  0  0  0  0
    2.8492    0.8166   -2.0600 C   0  0  0  0  0  0  0  0  0  0  0  0
    3.6179    0.5434   -0.7918 C   0  0  0  0  0  0  0  0  0  0  0  0
    4.8829    0.0996   -0.8694 C   0  0  0  0  0  0  0  0  0  0  0  0
    5.6397   -0.2268    0.3382 C   0  0  0  0  0  0  0  0  0  0  0  0
    6.8316   -0.6233    0.2517 O   0  0  0  0  0  0  0  0  0  0  0  0
    4.9988   -0.1060    1.6446 C   0  0  0  0  0  0  0  0  0  0  0  0
    3.7463    0.3398    1.7468 C   0  0  0  0  0  0  0  0  0  0  0  0
    2.9140    0.8086    0.5507 C   0  0  2  0  0  0  0  0  0  0  0  0
    2.7647    2.3443    0.6964 C   0  0  0  0  0  0  0  0  0  0  0  0
   -0.2524   -1.5726   -0.6931 H   0  0  0  0  0  0  0  0  0  0  0  0
   -1.1111   -1.0893   -2.7992 H   0  0  0  0  0  0  0  0  0  0  0  0
   -1.6408    0.5702   -2.3269 H   0  0  0  0  0  0  0  0  0  0  0  0
   -3.6479   -0.2848   -1.6804 H   0  0  0  0  0  0  0  0  0  0  0  0
   -3.3854   -2.2295   -3.1558 H   0  0  0  0  0  0  0  0  0  0  0  0
   -2.4278   -3.1129   -1.9043 H   0  0  0  0  0  0  0  0  0  0  0  0
   -4.1754   -2.7497   -1.6226 H   0  0  0  0  0  0  0  0  0  0  0  0
   -2.3572   -2.1961    0.3480 H   0  0  0  0  0  0  0  0  0  0  0  0
   -5.0475    0.6198   -0.0520 H   0  0  0  0  0  0  0  0  0  0  0  0
   -5.5745   -1.0736   -0.3744 H   0  0  0  0  0  0  0  0  0  0  0  0
   -6.0043    0.5324    1.9273 H   0  0  0  0  0  0  0  0  0  0  0  0
   -2.6674    1.5101   -0.3480 H   0  0  0  0  0  0  0  0  0  0  0  0
   -1.1860    2.0184    0.4767 H   0  0  0  0  0  0  0  0  0  0  0  0
   -2.5682    1.4400    1.4367 H   0  0  0  0  0  0  0  0  0  0  0  0
   -1.3133   -0.3491    2.6255 H   0  0  0  0  0  0  0  0  0  0  0  0
   -0.5023   -1.6688    1.7450 H   0  0  0  0  0  0  0  0  0  0  0  0
    1.2144   -0.3101    2.6613 H   0  0  0  0  0  0  0  0  0  0  0  0
    0.1796    1.5524    3.1003 H   0  0  0  0  0  0  0  0  0  0  0  0
    0.4390    1.4148   -0.8164 H   0  0  0  0  0  0  0  0  0  0  0  0
    1.7501   -1.0485   -2.1180 H   0  0  0  0  0  0  0  0  0  0  0  0
    0.9545    0.3299   -2.9510 H   0  0  0  0  0  0  0  0  0  0  0  0
    2.6436    1.9049   -2.1430 H   0  0  0  0  0  0  0  0  0  0  0  0
    3.4256    0.5213   -2.9644 H   0  0  0  0  0  0  0  0  0  0  0  0
    5.3573   -0.0507   -1.8321 H   0  0  0  0  0  0  0  0  0  0  0  0
    5.5475   -0.3770    2.5383 H   0  0  0  0  0  0  0  0  0  0  0  0
    3.3390    0.4502    2.7434 H   0  0  0  0  0  0  0  0  0  0  0  0
    2.5201    2.6434    1.7363 H   0  0  0  0  0  0  0  0  0  0  0  0
    1.9938    2.7619    0.0205 H   0  0  0  0  0  0  0  0  0  0  0  0
    3.7282    2.8443    0.4541 H   0  0  0  0  0  0  0  0  0  0  0  0
  1  2  1  0
  2  3  1  0
  3  4  1  0
  3  5  1  0
  5  6  1  0
  6  7  2  0
  6  8  1  0
  8  9  1  0
  5 10  1  0
 10 11  1  1
 10 12  1  0
 12 13  1  0
 13 14  1  0
 13 15  1  0
 15 16  1  6
 15 17  1  0
 17 18  1  0
 18 19  1  0
 19 20  1  0
 20 21  2  0
 21 22  1  0
 22 23  2  0
 22 24  1  0
 24 25  2  0
 25 26  1  0
 26 27  1  1
 10  1  1  0
 26 15  1  0
 17  1  1  0
 26 20  1  0
  1 28  1  1
  2 29  1  0
  2 30  1  0
  3 31  1  1
  4 32  1  0
  4 33  1  0
  4 34  1  0
  5 35  1  6
  8 36  1  0
  8 37  1  0
  9 38  1  0
 11 39  1  0
 11 40  1  0
 11 41  1  0
 12 42  1  0
 12 43  1  0
 13 44  1  1
 14 45  1  0
 17 46  1  1
 18 47  1  0
 18 48  1  0
 19 49  1  0
 19 50  1  0
 21 51  1  0
 24 52  1  0
 25 53  1  0
 27 54  1  0
 27 55  1  0
 27 56  1  0
M  END
$$$$
