
     RDKit          3D

 51 53  0  0  0  0  0  0  0  0999 V2000
    0.0693    4.7985   -0.7881 C   0  0  0  0  0  0  0  0  0  0  0  0
    1.2163    4.0735   -1.2213 O   0  0  0  0  0  0  0  0  0  0  0  0
    1.5296    2.7553   -0.8516 C   0  0  0  0  0  0  0  0  0  0  0  0
    2.7032    2.1351   -1.3569 C   0  0  0  0  0  0  0  0  0  0  0  0
    3.5954    2.7980   -2.2213 O   0  0  0  0  0  0  0  0  0  0  0  0
    3.4994    4.1331   -2.7057 C   0  0  0  0  0  0  0  0  0  0  0  0
    2.9960    0.7946   -0.9841 C   0  0  0  0  0  0  0  0  0  0  0  0
    4.1271    0.0865   -1.4401 O   0  0  0  0  0  0  0  0  0  0  0  0
    5.1369    0.5564   -2.3265 C   0  0  0  0  0  0  0  0  0  0  0  0
    2.1328    0.1041   -0.1170 C   0  0  0  0  0  0  0  0  0  0  0  0
    2.5146   -1.5678    0.3064 Cl  0  0  0  0  0  0  0  0  0  0  0  0
    0.9827    0.7276    0.3976 C   0  0  0  0  0  0  0  0  0  0  0  0
    0.0251   -0.0076    1.3062 C   0  0  0  0  0  0  0  0  0  0  0  0
   -0.8879   -0.8922    0.5005 C   0  0  0  0  0  0  0  0  0  0  0  0
   -1.6192   -0.4018   -0.5406 N   0  0  0  0  0  0  0  0  0  0  0  0
   -2.3178   -1.4749   -0.9493 C   0  0  0  0  0  0  0  0  0  0  0  0
   -3.2488   -1.5834   -1.9757 C   0  0  0  0  0  0  0  0  0  0  0  0
   -3.5879   -0.4714   -2.8043 N   0  0  0  0  0  0  0  0  0  0  0  0
   -3.8396   -2.8005   -2.1684 N   0  0  0  0  0  0  0  0  0  0  0  0
   -3.5295   -3.8779   -1.3775 C   0  0  0  0  0  0  0  0  0  0  0  0
   -2.6139   -3.7575   -0.3693 N   0  0  0  0  0  0  0  0  0  0  0  0
   -2.0261   -2.5501   -0.1842 C   0  0  0  0  0  0  0  0  0  0  0  0
   -1.1203   -2.2169    0.7458 N   0  0  0  0  0  0  0  0  0  0  0  0
   -0.6027   -3.0879    1.8070 C   0  0  0  0  0  0  0  0  0  0  0  0
   -1.5906   -3.1895    2.9761 C   0  0  0  0  0  0  0  0  0  0  0  0
   -1.7575   -1.8574    3.7135 C   0  0  0  0  0  0  0  0  0  0  0  0
   -2.6415   -2.0223    4.8725 C   0  0  0  0  0  0  0  0  0  0  0  0
   -3.3681   -2.1571    5.8249 C   0  0  0  0  0  0  0  0  0  0  0  0
    0.6870    2.0391    0.0157 C   0  0  0  0  0  0  0  0  0  0  0  0
   -0.8567    4.2809   -1.1162 H   0  0  0  0  0  0  0  0  0  0  0  0
    0.0889    5.8102   -1.2425 H   0  0  0  0  0  0  0  0  0  0  0  0
    0.0800    4.9067    0.3171 H   0  0  0  0  0  0  0  0  0  0  0  0
    4.3741    4.3402   -3.3554 H   0  0  0  0  0  0  0  0  0  0  0  0
    2.5807    4.2564   -3.3168 H   0  0  0  0  0  0  0  0  0  0  0  0
    3.5205    4.8526   -1.8605 H   0  0  0  0  0  0  0  0  0  0  0  0
    5.8775   -0.2538   -2.4855 H   0  0  0  0  0  0  0  0  0  0  0  0
    5.6671    1.4244   -1.8814 H   0  0  0  0  0  0  0  0  0  0  0  0
    4.6950    0.8170   -3.3111 H   0  0  0  0  0  0  0  0  0  0  0  0
    0.5968   -0.5720    2.0662 H   0  0  0  0  0  0  0  0  0  0  0  0
   -0.6026    0.7112    1.8755 H   0  0  0  0  0  0  0  0  0  0  0  0
   -3.1400    0.4613   -2.6625 H   0  0  0  0  0  0  0  0  0  0  0  0
   -4.2921   -0.5813   -3.5672 H   0  0  0  0  0  0  0  0  0  0  0  0
   -4.0141   -4.8287   -1.5516 H   0  0  0  0  0  0  0  0  0  0  0  0
   -0.4440   -4.1065    1.3911 H   0  0  0  0  0  0  0  0  0  0  0  0
    0.3881   -2.7452    2.1651 H   0  0  0  0  0  0  0  0  0  0  0  0
   -1.2095   -3.9558    3.6870 H   0  0  0  0  0  0  0  0  0  0  0  0
   -2.5773   -3.5359    2.5969 H   0  0  0  0  0  0  0  0  0  0  0  0
   -0.7710   -1.4908    4.0684 H   0  0  0  0  0  0  0  0  0  0  0  0
   -2.2057   -1.0991    3.0383 H   0  0  0  0  0  0  0  0  0  0  0  0
   -4.0060   -2.2757    6.6609 H   0  0  0  0  0  0  0  0  0  0  0  0
   -0.2138    2.4982    0.3997 H   0  0  0  0  0  0  0  0  0  0  0  0
  1  2  1  0
  2  3  1  0
  3  4  2  0
  4  5  1  0
  5  6  1  0
  4  7  1  0
  7  8  1  0
  8  9  1  0
  7 10  2  0
 10 11  1  0
 10 12  1  0
 12 13  1  0
 13 14  1  0
 14 15  2  0
 15 16  1  0
 16 17  2  0
 17 18  1  0
 17 19  1  0
 19 20  2  0
 20 21  1  0
 21 22  2  0
 22 23  1  0
 23 24  1  0
 24 25  1  0
 25 26  1  0
 26 27  1  0
 27 28  3  0
 12 29  2  0
 29  3  1  0
 23 14  1  0
 22 16  1  0
  1 30  1  0
  1 31  1  0
  1 32  1  0
  6 33  1  0
  6 34  1  0
  6 35  1  0
  9 36  1  0
  9 37  1  0
  9 38  1  0
 13 39  1  0
 13 40  1  0
 18 41  1  0
 18 42  1  0
 20 43  1  0
 24 44  1  0
 24 45  1  0
 25 46  1  0
 25 47  1  0
 26 48  1  0
 26 49  1  0
 28 50  1  0
 29 51  1  0
M  END
$$$$
