
     RDKit          3D

 45 47  0  0  0  0  0  0  0  0999 V2000
   -6.5507    1.2054    1.3499 N   0  0  0  0  0  0  0  0  0  0  0  0
   -5.6440    0.8052    0.3228 C   0  0  0  0  0  0  0  0  0  0  0  0
   -4.2982    0.8083    0.5719 N   0  0  0  0  0  0  0  0  0  0  0  0
   -3.4637    0.4252   -0.4237 C   0  0  0  0  0  0  0  0  0  0  0  0
   -3.9085    0.0358   -1.6382 C   0  0  0  0  0  0  0  0  0  0  0  0
   -2.8788   -0.3241   -2.4277 N   0  0  0  0  0  0  0  0  0  0  0  0
   -1.8000   -0.1263   -1.6199 C   0  0  0  0  0  0  0  0  0  0  0  0
   -2.1285    0.3438   -0.3875 N   0  0  0  0  0  0  0  0  0  0  0  0
   -1.2428    0.5771    0.7541 C   0  0  2  0  0  0  0  0  0  0  0  0
   -0.0098    1.1033    0.3099 O   0  0  0  0  0  0  0  0  0  0  0  0
    1.0319    0.4093    0.9668 C   0  0  2  0  0  0  0  0  0  0  0  0
    1.8669   -0.3406   -0.0788 C   0  0  0  0  0  0  0  0  0  0  0  0
    3.0007   -0.9006    0.5412 O   0  0  0  0  0  0  0  0  0  0  0  0
    3.9800   -1.6262   -0.6535 P   0  0  0  0  0  5  0  0  0  0  0  0
    3.0509   -2.6155   -1.6689 O   0  0  0  0  0  0  0  0  0  0  0  0
    5.0146   -2.4882    0.0327 O   0  0  0  0  0  0  0  0  0  0  0  0
    4.8392   -0.3598   -1.6453 C   0  0  0  0  0  0  0  0  0  0  0  0
    5.6897    0.8396   -0.5735 P   0  0  0  0  0  5  0  0  0  0  0  0
    6.7966    0.0429    0.4304 O   0  0  0  0  0  0  0  0  0  0  0  0
    6.5219    1.9433   -1.5486 O   0  0  0  0  0  0  0  0  0  0  0  0
    4.6786    1.5856    0.2686 O   0  0  0  0  0  0  0  0  0  0  0  0
    0.4243   -0.5406    2.0086 C   0  0  1  0  0  0  0  0  0  0  0  0
    0.4664    0.0248    3.2996 O   0  0  0  0  0  0  0  0  0  0  0  0
   -0.9890   -0.7204    1.5128 C   0  0  1  0  0  0  0  0  0  0  0  0
   -1.8948   -0.8918    2.5719 O   0  0  0  0  0  0  0  0  0  0  0  0
   -5.2695    0.0248   -1.9051 C   0  0  0  0  0  0  0  0  0  0  0  0
   -5.7110   -0.3375   -3.0281 O   0  0  0  0  0  0  0  0  0  0  0  0
   -6.1213    0.4171   -0.9086 N   0  0  0  0  0  0  0  0  0  0  0  0
   -7.5809    1.2096    1.1803 H   0  0  0  0  0  0  0  0  0  0  0  0
   -6.1910    1.4989    2.2852 H   0  0  0  0  0  0  0  0  0  0  0  0
   -0.7850   -0.3380   -1.9296 H   0  0  0  0  0  0  0  0  0  0  0  0
   -1.7070    1.3276    1.4332 H   0  0  0  0  0  0  0  0  0  0  0  0
    1.6931    1.1529    1.4653 H   0  0  0  0  0  0  0  0  0  0  0  0
    1.2362   -1.1345   -0.5381 H   0  0  0  0  0  0  0  0  0  0  0  0
    2.1653    0.3920   -0.8621 H   0  0  0  0  0  0  0  0  0  0  0  0
    2.7087   -2.0136   -2.3770 H   0  0  0  0  0  0  0  0  0  0  0  0
    4.1069    0.1775   -2.2817 H   0  0  0  0  0  0  0  0  0  0  0  0
    5.5834   -0.8559   -2.3017 H   0  0  0  0  0  0  0  0  0  0  0  0
    6.2608   -0.2870    1.1952 H   0  0  0  0  0  0  0  0  0  0  0  0
    7.0176    2.5185   -0.9127 H   0  0  0  0  0  0  0  0  0  0  0  0
    0.9463   -1.5225    2.0436 H   0  0  0  0  0  0  0  0  0  0  0  0
    0.0204    0.9119    3.2666 H   0  0  0  0  0  0  0  0  0  0  0  0
   -1.0215   -1.5978    0.8234 H   0  0  0  0  0  0  0  0  0  0  0  0
   -2.7530   -1.1770    2.1629 H   0  0  0  0  0  0  0  0  0  0  0  0
   -7.1513    0.4176   -1.0867 H   0  0  0  0  0  0  0  0  0  0  0  0
  1  2  1  0
  2  3  2  0
  3  4  1  0
  4  5  2  0
  5  6  1  0
  6  7  2  0
  7  8  1  0
  8  9  1  0
  9 10  1  0
 10 11  1  0
 11 12  1  0
 12 13  1  0
 13 14  1  0
 14 15  1  0
 14 16  2  0
 14 17  1  0
 17 18  1  0
 18 19  1  0
 18 20  1  0
 18 21  2  0
 11 22  1  0
 22 23  1  0
 22 24  1  0
 24 25  1  0
  5 26  1  0
 26 27  2  0
 26 28  1  0
 28  2  1  0
  8  4  1  0
 24  9  1  0
  1 29  1  0
  1 30  1  0
  7 31  1  0
  9 32  1  1
 11 33  1  1
 12 34  1  0
 12 35  1  0
 15 36  1  0
 17 37  1  0
 17 38  1  0
 19 39  1  0
 20 40  1  0
 22 41  1  1
 23 42  1  0
 24 43  1  6
 25 44  1  0
 28 45  1  0
M  END
$$$$
