
     RDKit          3D

 54 54  0  0  0  0  0  0  0  0999 V2000
   -3.9693   -4.9000   -0.8318 C   0  0  0  0  0  0  0  0  0  0  0  0
   -3.8294   -3.6997   -0.0040 N   0  0  0  0  0  0  0  0  0  0  0  0
   -4.4879   -2.5155   -0.5853 C   0  0  0  0  0  0  0  0  0  0  0  0
   -3.7571   -1.8967   -1.7996 C   0  0  0  0  0  0  0  0  0  0  0  0
   -3.8334   -2.7565   -2.9077 O   0  0  0  0  0  0  0  0  0  0  0  0
   -2.3229   -1.5210   -1.4755 C   0  0  0  0  0  0  0  0  0  0  0  0
   -2.0601   -0.3304   -0.7799 C   0  0  0  0  0  0  0  0  0  0  0  0
   -0.7502    0.0403   -0.4528 C   0  0  0  0  0  0  0  0  0  0  0  0
   -0.5611    1.2816    0.1656 O   0  0  0  0  0  0  0  0  0  0  0  0
    0.3000    2.2803   -0.3102 C   0  0  0  0  0  0  0  0  0  0  0  0
    1.0957    2.0366   -1.2597 O   0  0  0  0  0  0  0  0  0  0  0  0
    0.2723    3.6611    0.3208 C   0  0  0  0  0  0  0  0  0  0  0  0
   -1.0694    3.8884    1.0477 C   0  0  0  0  0  0  0  0  0  0  0  0
    1.4214    3.7777    1.3340 C   0  0  0  0  0  0  0  0  0  0  0  0
    0.4336    4.7426   -0.7672 C   0  0  0  0  0  0  0  0  0  0  0  0
    0.3166   -0.8373   -0.7556 C   0  0  0  0  0  0  0  0  0  0  0  0
    1.6380   -0.5921   -0.3648 O   0  0  0  0  0  0  0  0  0  0  0  0
    2.0402   -0.3454    0.9554 C   0  0  0  0  0  0  0  0  0  0  0  0
    1.1790   -0.1667    1.8612 O   0  0  0  0  0  0  0  0  0  0  0  0
    3.5193   -0.2947    1.2947 C   0  0  0  0  0  0  0  0  0  0  0  0
    3.9740    1.1714    1.3585 C   0  0  0  0  0  0  0  0  0  0  0  0
    4.3396   -1.0332    0.2167 C   0  0  0  0  0  0  0  0  0  0  0  0
    3.7721   -0.9719    2.6574 C   0  0  0  0  0  0  0  0  0  0  0  0
    0.0568   -2.0112   -1.4705 C   0  0  0  0  0  0  0  0  0  0  0  0
   -1.2486   -2.3570   -1.8231 C   0  0  0  0  0  0  0  0  0  0  0  0
   -3.7103   -5.7898   -0.2212 H   0  0  0  0  0  0  0  0  0  0  0  0
   -3.2749   -4.8694   -1.6967 H   0  0  0  0  0  0  0  0  0  0  0  0
   -5.0153   -5.0241   -1.1861 H   0  0  0  0  0  0  0  0  0  0  0  0
   -2.8165   -3.5152    0.1766 H   0  0  0  0  0  0  0  0  0  0  0  0
   -4.5600   -1.7410    0.2087 H   0  0  0  0  0  0  0  0  0  0  0  0
   -5.5357   -2.7591   -0.8685 H   0  0  0  0  0  0  0  0  0  0  0  0
   -4.3098   -0.9615   -2.0542 H   0  0  0  0  0  0  0  0  0  0  0  0
   -3.5907   -2.2187   -3.7067 H   0  0  0  0  0  0  0  0  0  0  0  0
   -2.8764    0.3304   -0.5133 H   0  0  0  0  0  0  0  0  0  0  0  0
   -1.1999    3.1586    1.8760 H   0  0  0  0  0  0  0  0  0  0  0  0
   -1.9201    3.7745    0.3410 H   0  0  0  0  0  0  0  0  0  0  0  0
   -1.1127    4.9102    1.4833 H   0  0  0  0  0  0  0  0  0  0  0  0
    1.3320    2.9918    2.1148 H   0  0  0  0  0  0  0  0  0  0  0  0
    2.4022    3.6673    0.8253 H   0  0  0  0  0  0  0  0  0  0  0  0
    1.4037    4.7700    1.8343 H   0  0  0  0  0  0  0  0  0  0  0  0
    1.4125    4.6433   -1.2844 H   0  0  0  0  0  0  0  0  0  0  0  0
    0.3852    5.7594   -0.3205 H   0  0  0  0  0  0  0  0  0  0  0  0
   -0.3742    4.6547   -1.5258 H   0  0  0  0  0  0  0  0  0  0  0  0
    3.4318    1.7130    2.1621 H   0  0  0  0  0  0  0  0  0  0  0  0
    5.0623    1.2353    1.5750 H   0  0  0  0  0  0  0  0  0  0  0  0
    3.7807    1.6806    0.3896 H   0  0  0  0  0  0  0  0  0  0  0  0
    4.2244   -0.5425   -0.7741 H   0  0  0  0  0  0  0  0  0  0  0  0
    4.0047   -2.0896    0.1274 H   0  0  0  0  0  0  0  0  0  0  0  0
    5.4208   -1.0310    0.4749 H   0  0  0  0  0  0  0  0  0  0  0  0
    3.2353   -0.4389    3.4719 H   0  0  0  0  0  0  0  0  0  0  0  0
    3.4220   -2.0268    2.6384 H   0  0  0  0  0  0  0  0  0  0  0  0
    4.8562   -0.9673    2.9031 H   0  0  0  0  0  0  0  0  0  0  0  0
    0.8710   -2.6784   -1.7239 H   0  0  0  0  0  0  0  0  0  0  0  0
   -1.4174   -3.2863   -2.3510 H   0  0  0  0  0  0  0  0  0  0  0  0
  1  2  1  0
  2  3  1  0
  3  4  1  0
  4  5  1  0
  4  6  1  0
  6  7  2  0
  7  8  1  0
  8  9  1  0
  9 10  1  0
 10 11  2  0
 10 12  1  0
 12 13  1  0
 12 14  1  0
 12 15  1  0
  8 16  2  0
 16 17  1  0
 17 18  1  0
 18 19  2  0
 18 20  1  0
 20 21  1  0
 20 22  1  0
 20 23  1  0
 16 24  1  0
 24 25  2  0
 25  6  1  0
  1 26  1  0
  1 27  1  0
  1 28  1  0
  2 29  1  0
  3 30  1  0
  3 31  1  0
  4 32  1  0
  5 33  1  0
  7 34  1  0
 13 35  1  0
 13 36  1  0
 13 37  1  0
 14 38  1  0
 14 39  1  0
 14 40  1  0
 15 41  1  0
 15 42  1  0
 15 43  1  0
 21 44  1  0
 21 45  1  0
 21 46  1  0
 22 47  1  0
 22 48  1  0
 22 49  1  0
 23 50  1  0
 23 51  1  0
 23 52  1  0
 24 53  1  0
 25 54  1  0
M  END
$$$$
