
     RDKit          3D

 19 18  0  0  0  0  0  0  0  0999 V2000
    2.5703    0.7848   -1.4993 O   0  0  0  0  0  0  0  0  0  0  0  0
    2.5603    0.0346   -0.3136 C   0  0  0  0  0  0  0  0  0  0  0  0
    1.2648   -0.7877   -0.2007 C   0  0  1  0  0  0  0  0  0  0  0  0
    1.3630   -1.7040    0.8613 O   0  0  0  0  0  0  0  0  0  0  0  0
    0.0266    0.1064   -0.0277 C   0  0  0  0  0  0  0  0  0  0  0  0
   -1.1169   -0.7072    0.0937 O   0  0  0  0  0  0  0  0  0  0  0  0
   -2.4741    0.2996    0.3282 P   0  0  0  0  0  5  0  0  0  0  0  0
   -3.8694   -0.6567    0.3616 O   0  0  0  0  0  0  0  0  0  0  0  0
   -2.6042    1.4171   -0.9367 O   0  0  0  0  0  0  0  0  0  0  0  0
   -2.3504    1.0390    1.6419 O   0  0  0  0  0  0  0  0  0  0  0  0
    2.1809    1.6719   -1.2833 H   0  0  0  0  0  0  0  0  0  0  0  0
    3.4250   -0.6622   -0.3388 H   0  0  0  0  0  0  0  0  0  0  0  0
    2.6889    0.6911    0.5787 H   0  0  0  0  0  0  0  0  0  0  0  0
    1.1434   -1.3708   -1.1399 H   0  0  0  0  0  0  0  0  0  0  0  0
    1.4726   -1.1817    1.6992 H   0  0  0  0  0  0  0  0  0  0  0  0
    0.1647    0.7354    0.8817 H   0  0  0  0  0  0  0  0  0  0  0  0
   -0.0629    0.7627   -0.9224 H   0  0  0  0  0  0  0  0  0  0  0  0
   -3.6936   -1.3354    1.0612 H   0  0  0  0  0  0  0  0  0  0  0  0
   -2.6890    0.8631   -1.7532 H   0  0  0  0  0  0  0  0  0  0  0  0
  1  2  1  0
  2  3  1  0
  3  4  1  0
  3  5  1  0
  5  6  1  0
  6  7  1  0
  7  8  1  0
  7  9  1  0
  7 10  2  0
  1 11  1  0
  2 12  1  0
  2 13  1  0
  3 14  1  6
  4 15  1  0
  5 16  1  0
  5 17  1  0
  8 18  1  0
  9 19  1  0
M  END
$$$$
