
     RDKit          3D

 19 18  0  0  0  0  0  0  0  0999 V2000
    3.0030    0.6409   -0.8473 C   0  0  0  0  0  0  0  0  0  0  0  0
    1.8821   -0.1557   -0.2718 C   0  0  0  0  0  0  0  0  0  0  0  0
    1.9815   -0.6186    0.8970 O   0  0  0  0  0  0  0  0  0  0  0  0
    0.7557   -0.4253   -1.0568 O   0  0  0  0  0  0  0  0  0  0  0  0
   -0.3829   -1.1417   -0.5788 C   0  0  0  0  0  0  0  0  0  0  0  0
   -1.2334   -0.2657    0.3606 C   0  0  2  0  0  0  0  0  0  0  0  0
   -2.3866   -1.0084    0.8735 N   0  0  0  0  0  0  0  0  0  0  0  0
   -1.6985    0.9777   -0.3430 C   0  0  0  0  0  0  0  0  0  0  0  0
   -1.1591    2.2118    0.0064 O   0  0  0  0  0  0  0  0  0  0  0  0
   -2.5556    0.9060   -1.2649 O   0  0  0  0  0  0  0  0  0  0  0  0
    2.6219    1.3033   -1.6525 H   0  0  0  0  0  0  0  0  0  0  0  0
    3.7656   -0.0456   -1.2699 H   0  0  0  0  0  0  0  0  0  0  0  0
    3.4699    1.2680   -0.0587 H   0  0  0  0  0  0  0  0  0  0  0  0
   -0.0543   -2.0652   -0.0534 H   0  0  0  0  0  0  0  0  0  0  0  0
   -0.9934   -1.4536   -1.4533 H   0  0  0  0  0  0  0  0  0  0  0  0
   -0.6072    0.0402    1.2272 H   0  0  0  0  0  0  0  0  0  0  0  0
   -2.9186   -1.4258    0.0747 H   0  0  0  0  0  0  0  0  0  0  0  0
   -2.0377   -1.8015    1.4598 H   0  0  0  0  0  0  0  0  0  0  0  0
   -1.4522    3.0592   -0.4650 H   0  0  0  0  0  0  0  0  0  0  0  0
  1  2  1  0
  2  3  2  0
  2  4  1  0
  4  5  1  0
  5  6  1  0
  6  7  1  0
  6  8  1  0
  8  9  1  0
  8 10  2  0
  1 11  1  0
  1 12  1  0
  1 13  1  0
  5 14  1  0
  5 15  1  0
  6 16  1  1
  7 17  1  0
  7 18  1  0
  9 19  1  0
M  END
$$$$
