
     RDKit          3D

 38 39  0  0  0  0  0  0  0  0999 V2000
   -2.3406    2.7633   -0.1314 C   0  0  0  0  0  0  0  0  0  0  0  0
   -1.6194    1.5002    0.0841 N   0  0  0  0  0  0  0  0  0  0  0  0
   -1.8504    0.5763   -1.0502 C   0  0  0  0  0  0  0  0  0  0  0  0
   -1.4730   -0.8859   -0.7226 C   0  0  0  0  0  0  0  0  0  0  0  0
   -0.6492   -0.9645    0.4872 N   0  0  0  0  0  0  0  0  0  0  0  0
   -1.0487   -0.2434    1.6995 C   0  0  0  0  0  0  0  0  0  0  0  0
   -2.0241    0.8860    1.3599 C   0  0  0  0  0  0  0  0  0  0  0  0
    0.4174   -1.9207    0.5611 C   0  0  0  0  0  0  0  0  0  0  0  0
    1.6943   -1.6204    0.0345 C   0  0  0  0  0  0  0  0  0  0  0  0
    1.9784   -0.2796   -0.5898 C   0  0  0  0  0  0  0  0  0  0  0  0
    2.0756    0.7309    0.4607 N   0  0  0  0  0  0  0  0  0  0  0  0
    1.9538    1.9923    0.2901 N   0  0  0  0  0  0  0  0  0  0  0  0
    1.7501    2.6626   -0.9644 C   0  0  0  0  0  0  0  0  0  0  0  0
    0.9632    3.8519   -0.9840 N   0  0  0  0  0  0  0  0  0  0  0  0
    2.6619    2.2986   -2.2793 S   0  0  0  0  0  0  0  0  0  0  0  0
    2.7243   -2.5701    0.1487 C   0  0  0  0  0  0  0  0  0  0  0  0
    2.4845   -3.8043    0.7585 C   0  0  0  0  0  0  0  0  0  0  0  0
    1.2194   -4.0996    1.2695 C   0  0  0  0  0  0  0  0  0  0  0  0
    0.1901   -3.1608    1.1746 C   0  0  0  0  0  0  0  0  0  0  0  0
   -2.0694    3.4948    0.6597 H   0  0  0  0  0  0  0  0  0  0  0  0
   -3.4423    2.6060   -0.1178 H   0  0  0  0  0  0  0  0  0  0  0  0
   -2.0492    3.2090   -1.1070 H   0  0  0  0  0  0  0  0  0  0  0  0
   -2.9161    0.5992   -1.3751 H   0  0  0  0  0  0  0  0  0  0  0  0
   -1.2332    0.9177   -1.9098 H   0  0  0  0  0  0  0  0  0  0  0  0
   -0.9428   -1.3382   -1.5898 H   0  0  0  0  0  0  0  0  0  0  0  0
   -2.3993   -1.4774   -0.5555 H   0  0  0  0  0  0  0  0  0  0  0  0
   -1.5171   -0.9455    2.4221 H   0  0  0  0  0  0  0  0  0  0  0  0
   -0.1448    0.1978    2.1732 H   0  0  0  0  0  0  0  0  0  0  0  0
   -3.0615    0.4848    1.2914 H   0  0  0  0  0  0  0  0  0  0  0  0
   -1.9965    1.6331    2.1846 H   0  0  0  0  0  0  0  0  0  0  0  0
    1.1607   -0.0247   -1.2950 H   0  0  0  0  0  0  0  0  0  0  0  0
    2.9297   -0.3091   -1.1625 H   0  0  0  0  0  0  0  0  0  0  0  0
    0.4666    4.1659   -0.1212 H   0  0  0  0  0  0  0  0  0  0  0  0
    0.8598    4.4133   -1.8585 H   0  0  0  0  0  0  0  0  0  0  0  0
    3.7152   -2.3555   -0.2320 H   0  0  0  0  0  0  0  0  0  0  0  0
    3.2823   -4.5314    0.8388 H   0  0  0  0  0  0  0  0  0  0  0  0
    1.0372   -5.0556    1.7431 H   0  0  0  0  0  0  0  0  0  0  0  0
   -0.7870   -3.3967    1.5773 H   0  0  0  0  0  0  0  0  0  0  0  0
  1  2  1  0
  2  3  1  0
  3  4  1  0
  4  5  1  0
  5  6  1  0
  6  7  1  0
  5  8  1  0
  8  9  2  0
  9 10  1  0
 10 11  1  0
 11 12  2  0
 12 13  1  0
 13 14  1  0
 13 15  2  0
  9 16  1  0
 16 17  2  0
 17 18  1  0
 18 19  2  0
  7  2  1  0
 19  8  1  0
  1 20  1  0
  1 21  1  0
  1 22  1  0
  3 23  1  0
  3 24  1  0
  4 25  1  0
  4 26  1  0
  6 27  1  0
  6 28  1  0
  7 29  1  0
  7 30  1  0
 10 31  1  0
 10 32  1  0
 14 33  1  0
 14 34  1  0
 16 35  1  0
 17 36  1  0
 18 37  1  0
 19 38  1  0
M  END
$$$$
