
     RDKit          3D

 43 45  0  0  0  0  0  0  0  0999 V2000
   -6.7651    0.1269   -0.5899 N   0  0  0  0  0  0  0  0  0  0  0  0
   -5.5654   -0.6463   -0.5765 C   0  0  0  0  0  0  0  0  0  0  0  0
   -4.3550   -0.0125   -0.4955 N   0  0  0  0  0  0  0  0  0  0  0  0
   -3.2347   -0.7739   -0.4884 C   0  0  0  0  0  0  0  0  0  0  0  0
   -3.2702   -2.1229   -0.5457 C   0  0  0  0  0  0  0  0  0  0  0  0
   -2.0259   -2.6332   -0.4823 N   0  0  0  0  0  0  0  0  0  0  0  0
   -1.2503   -1.5177   -0.3870 C   0  0  0  0  0  0  0  0  0  0  0  0
   -1.9646   -0.3612   -0.4012 N   0  0  0  0  0  0  0  0  0  0  0  0
   -1.4737    1.0060   -0.2158 C   0  0  2  0  0  0  0  0  0  0  0  0
   -0.2495    1.1672   -0.9051 O   0  0  0  0  0  0  0  0  0  0  0  0
    0.6733    1.7359   -0.0044 C   0  0  2  0  0  0  0  0  0  0  0  0
    2.0925    1.2545   -0.3251 C   0  0  0  0  0  0  0  0  0  0  0  0
    2.1350   -0.1536   -0.3173 O   0  0  0  0  0  0  0  0  0  0  0  0
    3.7292   -0.6429   -0.6668 P   0  0  0  0  0  5  0  0  0  0  0  0
    4.1623   -0.0838   -2.2074 O   0  0  0  0  0  0  0  0  0  0  0  0
    3.7753   -2.1544   -0.6534 O   0  0  0  0  0  0  0  0  0  0  0  0
    4.7755   -0.0322    0.5312 O   0  0  0  0  0  0  0  0  0  0  0  0
    6.3746   -0.2408   -0.0145 P   0  0  0  0  0  5  0  0  0  0  0  0
    7.4214    0.0860    1.2735 O   0  0  0  0  0  0  0  0  0  0  0  0
    6.6428   -1.8322   -0.5355 O   0  0  0  0  0  0  0  0  0  0  0  0
    6.6686    0.7308   -1.1368 O   0  0  0  0  0  0  0  0  0  0  0  0
    0.2399    1.3782    1.4106 C   0  0  1  0  0  0  0  0  0  0  0  0
    0.6523    2.3586    2.3276 O   0  0  0  0  0  0  0  0  0  0  0  0
   -1.2659    1.3033    1.2772 C   0  0  1  0  0  0  0  0  0  0  0  0
   -1.8976    2.5060    1.6533 O   0  0  0  0  0  0  0  0  0  0  0  0
   -4.4892   -2.7798   -0.6246 C   0  0  0  0  0  0  0  0  0  0  0  0
   -4.5504   -4.0372   -0.6750 O   0  0  0  0  0  0  0  0  0  0  0  0
   -5.6270   -2.0198   -0.6423 N   0  0  0  0  0  0  0  0  0  0  0  0
   -7.6984   -0.3373   -0.6504 H   0  0  0  0  0  0  0  0  0  0  0  0
   -6.7209    1.1688   -0.5390 H   0  0  0  0  0  0  0  0  0  0  0  0
   -0.1737   -1.5560   -0.2911 H   0  0  0  0  0  0  0  0  0  0  0  0
   -2.2121    1.7147   -0.6532 H   0  0  0  0  0  0  0  0  0  0  0  0
    0.6466    2.8426   -0.1322 H   0  0  0  0  0  0  0  0  0  0  0  0
    2.7874    1.6816    0.4337 H   0  0  0  0  0  0  0  0  0  0  0  0
    2.3649    1.6477   -1.3309 H   0  0  0  0  0  0  0  0  0  0  0  0
    3.4660   -0.4447   -2.8121 H   0  0  0  0  0  0  0  0  0  0  0  0
    8.3254   -0.1144    0.9218 H   0  0  0  0  0  0  0  0  0  0  0  0
    6.5194   -1.8106   -1.5181 H   0  0  0  0  0  0  0  0  0  0  0  0
    0.6372    0.3773    1.7026 H   0  0  0  0  0  0  0  0  0  0  0  0
    0.4644    1.9927    3.2311 H   0  0  0  0  0  0  0  0  0  0  0  0
   -1.6629    0.4861    1.9197 H   0  0  0  0  0  0  0  0  0  0  0  0
   -1.5445    3.2352    1.0783 H   0  0  0  0  0  0  0  0  0  0  0  0
   -6.5572   -2.4927   -0.7022 H   0  0  0  0  0  0  0  0  0  0  0  0
  1  2  1  0
  2  3  2  0
  3  4  1  0
  4  5  2  0
  5  6  1  0
  6  7  2  0
  7  8  1  0
  8  9  1  0
  9 10  1  0
 10 11  1  0
 11 12  1  0
 12 13  1  0
 13 14  1  0
 14 15  1  0
 14 16  2  0
 14 17  1  0
 17 18  1  0
 18 19  1  0
 18 20  1  0
 18 21  2  0
 11 22  1  0
 22 23  1  0
 22 24  1  0
 24 25  1  0
  5 26  1  0
 26 27  2  0
 26 28  1  0
 28  2  1  0
  8  4  1  0
 24  9  1  0
  1 29  1  0
  1 30  1  0
  7 31  1  0
  9 32  1  6
 11 33  1  1
 12 34  1  0
 12 35  1  0
 15 36  1  0
 19 37  1  0
 20 38  1  0
 22 39  1  1
 23 40  1  0
 24 41  1  1
 25 42  1  0
 28 43  1  0
M  END
$$$$
