
     RDKit          3D

 56 59  0  0  0  0  0  0  0  0999 V2000
    4.9372    1.9609   -1.0246 C   0  0  0  0  0  0  0  0  0  0  0  0
    4.0214    0.9838   -0.2936 C   0  0  0  0  0  0  0  0  0  0  0  0
    4.7668    0.1542    0.5783 O   0  0  0  0  0  0  0  0  0  0  0  0
    5.2978   -0.9814   -0.0909 C   0  0  2  0  0  0  0  0  0  0  0  0
    4.6065   -2.2555    0.4204 C   0  0  0  0  0  0  0  0  0  0  0  0
    3.1444   -2.2632    0.0584 C   0  0  0  0  0  0  0  0  0  0  0  0
    2.1877   -1.7687    0.9579 C   0  0  0  0  0  0  0  0  0  0  0  0
    0.8375   -1.7235    0.5997 C   0  0  0  0  0  0  0  0  0  0  0  0
    0.4244   -2.1642   -0.6720 C   0  0  0  0  0  0  0  0  0  0  0  0
   -0.9162   -2.1350   -1.0890 O   0  0  0  0  0  0  0  0  0  0  0  0
   -1.9910   -1.5021   -0.3939 C   0  0  0  0  0  0  0  0  0  0  0  0
   -1.8962    0.0229   -0.5261 C   0  0  0  0  0  0  0  0  0  0  0  0
   -3.1506    0.6662   -0.0893 N   0  0  0  0  0  0  0  0  0  0  0  0
   -4.2114    0.9435   -1.0451 C   0  0  0  0  0  0  0  0  0  0  0  0
   -4.2435    0.3606   -2.3322 C   0  0  0  0  0  0  0  0  0  0  0  0
   -5.2638    0.6821   -3.2321 C   0  0  0  0  0  0  0  0  0  0  0  0
   -6.2666    1.5800   -2.8658 C   0  0  0  0  0  0  0  0  0  0  0  0
   -6.2612    2.1488   -1.5920 C   0  0  0  0  0  0  0  0  0  0  0  0
   -5.2500    1.8257   -0.6814 C   0  0  0  0  0  0  0  0  0  0  0  0
   -5.2875    2.3761    0.5998 O   0  0  0  0  0  0  0  0  0  0  0  0
   -4.3757    2.0036    1.5875 C   0  0  0  0  0  0  0  0  0  0  0  0
   -3.3154    1.1253    1.2805 C   0  0  0  0  0  0  0  0  0  0  0  0
   -2.4518    0.7238    2.3234 C   0  0  0  0  0  0  0  0  0  0  0  0
   -2.6252    1.2175    3.6197 C   0  0  0  0  0  0  0  0  0  0  0  0
   -3.6604    2.1098    3.8989 C   0  0  0  0  0  0  0  0  0  0  0  0
   -4.5359    2.5000    2.8853 C   0  0  0  0  0  0  0  0  0  0  0  0
    1.3820   -2.6593   -1.5649 C   0  0  0  0  0  0  0  0  0  0  0  0
    2.7325   -2.7030   -1.2084 C   0  0  0  0  0  0  0  0  0  0  0  0
    6.7681   -1.0617    0.1952 C   0  0  0  0  0  0  0  0  0  0  0  0
    7.6569   -1.3751   -0.8286 O   0  0  0  0  0  0  0  0  0  0  0  0
    7.1990   -0.8764    1.3655 O   0  0  0  0  0  0  0  0  0  0  0  0
    5.5229    2.5533   -0.2902 H   0  0  0  0  0  0  0  0  0  0  0  0
    4.3272    2.6540   -1.6415 H   0  0  0  0  0  0  0  0  0  0  0  0
    5.6367    1.4140   -1.6906 H   0  0  0  0  0  0  0  0  0  0  0  0
    3.3099    1.5731    0.3224 H   0  0  0  0  0  0  0  0  0  0  0  0
    3.4017    0.4070   -1.0183 H   0  0  0  0  0  0  0  0  0  0  0  0
    5.1855   -0.9443   -1.2020 H   0  0  0  0  0  0  0  0  0  0  0  0
    4.7249   -2.3330    1.5242 H   0  0  0  0  0  0  0  0  0  0  0  0
    5.0966   -3.1509   -0.0231 H   0  0  0  0  0  0  0  0  0  0  0  0
    2.4886   -1.4105    1.9347 H   0  0  0  0  0  0  0  0  0  0  0  0
    0.1291   -1.3469    1.3209 H   0  0  0  0  0  0  0  0  0  0  0  0
   -2.9410   -1.8490   -0.8505 H   0  0  0  0  0  0  0  0  0  0  0  0
   -2.0134   -1.8184    0.6694 H   0  0  0  0  0  0  0  0  0  0  0  0
   -1.6638    0.2992   -1.5759 H   0  0  0  0  0  0  0  0  0  0  0  0
   -1.0326    0.4126    0.0502 H   0  0  0  0  0  0  0  0  0  0  0  0
   -3.4971   -0.3506   -2.6536 H   0  0  0  0  0  0  0  0  0  0  0  0
   -5.2771    0.2320   -4.2165 H   0  0  0  0  0  0  0  0  0  0  0  0
   -7.0540    1.8275   -3.5660 H   0  0  0  0  0  0  0  0  0  0  0  0
   -7.0499    2.8330   -1.3061 H   0  0  0  0  0  0  0  0  0  0  0  0
   -1.6485    0.0245    2.1575 H   0  0  0  0  0  0  0  0  0  0  0  0
   -1.9550    0.9054    4.4105 H   0  0  0  0  0  0  0  0  0  0  0  0
   -3.7907    2.4910    4.9035 H   0  0  0  0  0  0  0  0  0  0  0  0
   -5.3480    3.1799    3.1092 H   0  0  0  0  0  0  0  0  0  0  0  0
    1.0783   -3.0015   -2.5461 H   0  0  0  0  0  0  0  0  0  0  0  0
    3.4584   -3.0723   -1.9223 H   0  0  0  0  0  0  0  0  0  0  0  0
    8.6515   -1.4447   -0.6499 H   0  0  0  0  0  0  0  0  0  0  0  0
  1  2  1  0
  2  3  1  0
  3  4  1  0
  4  5  1  0
  5  6  1  0
  6  7  2  0
  7  8  1  0
  8  9  2  0
  9 10  1  0
 10 11  1  0
 11 12  1  0
 12 13  1  0
 13 14  1  0
 14 15  2  0
 15 16  1  0
 16 17  2  0
 17 18  1  0
 18 19  2  0
 19 20  1  0
 20 21  1  0
 21 22  2  0
 22 23  1  0
 23 24  2  0
 24 25  1  0
 25 26  2  0
  9 27  1  0
 27 28  2  0
  4 29  1  0
 29 30  1  0
 29 31  2  0
 28  6  1  0
 22 13  1  0
 19 14  1  0
 26 21  1  0
  1 32  1  0
  1 33  1  0
  1 34  1  0
  2 35  1  0
  2 36  1  0
  4 37  1  6
  5 38  1  0
  5 39  1  0
  7 40  1  0
  8 41  1  0
 11 42  1  0
 11 43  1  0
 12 44  1  0
 12 45  1  0
 15 46  1  0
 16 47  1  0
 17 48  1  0
 18 49  1  0
 23 50  1  0
 24 51  1  0
 25 52  1  0
 26 53  1  0
 27 54  1  0
 28 55  1  0
 30 56  1  0
M  END
$$$$
