
     RDKit          3D

 31 33  0  0  0  0  0  0  0  0999 V2000
    4.1916    1.6069    0.7550 C   0  0  0  0  0  0  0  0  0  0  0  0
    4.1621    0.8887   -0.5223 N   0  0  0  0  0  0  0  0  0  0  0  0
    3.7282   -0.5030   -0.3409 C   0  0  0  0  0  0  0  0  0  0  0  0
    2.2334   -0.5754   -0.1725 C   0  0  0  0  0  0  0  0  0  0  0  0
    1.3903   -0.3226   -1.2640 C   0  0  0  0  0  0  0  0  0  0  0  0
    0.0017   -0.3678   -1.1104 C   0  0  0  0  0  0  0  0  0  0  0  0
   -0.5684   -0.6541    0.1435 C   0  0  0  0  0  0  0  0  0  0  0  0
    0.2811   -0.9171    1.2319 C   0  0  0  0  0  0  0  0  0  0  0  0
    1.6695   -0.8708    1.0773 C   0  0  0  0  0  0  0  0  0  0  0  0
   -2.0383   -0.7177    0.3269 C   0  0  0  0  0  0  0  0  0  0  0  0
   -2.5786   -1.6130    1.2106 N   0  0  0  0  0  0  0  0  0  0  0  0
   -3.9311   -1.6989    1.4203 C   0  0  0  0  0  0  0  0  0  0  0  0
   -4.7897   -0.8738    0.7512 N   0  0  0  0  0  0  0  0  0  0  0  0
   -4.2618    0.0165   -0.1207 C   0  0  0  0  0  0  0  0  0  0  0  0
   -2.9311    0.1200   -0.3473 C   0  0  0  0  0  0  0  0  0  0  0  0
   -2.6869    1.1243   -1.2100 N   0  0  0  0  0  0  0  0  0  0  0  0
   -3.9340    1.5929   -1.4892 C   0  0  0  0  0  0  0  0  0  0  0  0
   -4.9211    0.9339   -0.8336 N   0  0  0  0  0  0  0  0  0  0  0  0
    4.5530    2.6429    0.5844 H   0  0  0  0  0  0  0  0  0  0  0  0
    4.8777    1.1105    1.4762 H   0  0  0  0  0  0  0  0  0  0  0  0
    3.1715    1.6705    1.1896 H   0  0  0  0  0  0  0  0  0  0  0  0
    5.1425    0.8698   -0.8891 H   0  0  0  0  0  0  0  0  0  0  0  0
    4.2576   -0.9805    0.5152 H   0  0  0  0  0  0  0  0  0  0  0  0
    4.0046   -1.0895   -1.2449 H   0  0  0  0  0  0  0  0  0  0  0  0
    1.8099   -0.0963   -2.2366 H   0  0  0  0  0  0  0  0  0  0  0  0
   -0.6207   -0.2034   -1.9796 H   0  0  0  0  0  0  0  0  0  0  0  0
   -0.1298   -1.1438    2.2081 H   0  0  0  0  0  0  0  0  0  0  0  0
    2.3037   -1.0618    1.9341 H   0  0  0  0  0  0  0  0  0  0  0  0
   -4.3200   -2.4208    2.1251 H   0  0  0  0  0  0  0  0  0  0  0  0
   -4.1180    2.4197   -2.1623 H   0  0  0  0  0  0  0  0  0  0  0  0
   -5.9490    1.1137   -0.8658 H   0  0  0  0  0  0  0  0  0  0  0  0
  1  2  1  0
  2  3  1  0
  3  4  1  0
  4  5  2  0
  5  6  1  0
  6  7  2  0
  7  8  1  0
  8  9  2  0
  7 10  1  0
 10 11  2  0
 11 12  1  0
 12 13  2  0
 13 14  1  0
 14 15  2  0
 15 16  1  0
 16 17  2  0
 17 18  1  0
  9  4  1  0
 15 10  1  0
 18 14  1  0
  1 19  1  0
  1 20  1  0
  1 21  1  0
  2 22  1  0
  3 23  1  0
  3 24  1  0
  5 25  1  0
  6 26  1  0
  8 27  1  0
  9 28  1  0
 12 29  1  0
 17 30  1  0
 18 31  1  0
M  END
$$$$
