
     RDKit          3D

 42 43  0  0  0  0  0  0  0  0999 V2000
    3.4808    0.9261    0.6431 C   0  0  2  0  0  0  0  0  0  0  0  0
    2.1831    0.9769    1.4669 C   0  0  0  0  0  0  0  0  0  0  0  0
    1.2346   -0.1254    1.0697 C   0  0  0  0  0  0  0  0  0  0  0  0
    0.2019    0.1217    0.1527 C   0  0  0  0  0  0  0  0  0  0  0  0
   -0.6701   -0.9126   -0.2411 C   0  0  0  0  0  0  0  0  0  0  0  0
   -1.7185   -0.7072   -1.1544 O   0  0  0  0  0  0  0  0  0  0  0  0
   -2.1540    0.5574   -1.6566 C   0  0  0  0  0  0  0  0  0  0  0  0
   -2.9086    1.3605   -0.5858 C   0  0  0  0  0  0  0  0  0  0  0  0
   -4.0762    0.5881    0.0504 C   0  0  0  0  0  0  0  0  0  0  0  0
   -5.2119    0.3134   -0.9344 C   0  0  0  0  0  0  0  0  0  0  0  0
   -0.4933   -2.2039    0.2804 C   0  0  0  0  0  0  0  0  0  0  0  0
   -1.3757   -3.2152   -0.1316 O   0  0  0  0  0  0  0  0  0  0  0  0
   -1.3204   -4.5657    0.3162 C   0  0  0  0  0  0  0  0  0  0  0  0
    0.5500   -2.4494    1.1927 C   0  0  0  0  0  0  0  0  0  0  0  0
    1.4065   -1.4182    1.5804 C   0  0  0  0  0  0  0  0  0  0  0  0
    4.5015    2.0116    1.1028 C   0  0  0  0  0  0  0  0  0  0  0  0
    4.7596    2.8355   -0.0700 N   0  0  0  0  0  0  0  0  0  0  0  0
    3.9881    2.3301   -1.1326 C   0  0  0  0  0  0  0  0  0  0  0  0
    3.9965    2.8185   -2.2926 O   0  0  0  0  0  0  0  0  0  0  0  0
    3.2130    1.2149   -0.7634 N   0  0  0  0  0  0  0  0  0  0  0  0
    3.9473   -0.0804    0.7285 H   0  0  0  0  0  0  0  0  0  0  0  0
    2.4297    0.8709    2.5462 H   0  0  0  0  0  0  0  0  0  0  0  0
    1.6959    1.9694    1.3408 H   0  0  0  0  0  0  0  0  0  0  0  0
    0.0957    1.1173   -0.2536 H   0  0  0  0  0  0  0  0  0  0  0  0
   -2.8248    0.3799   -2.5223 H   0  0  0  0  0  0  0  0  0  0  0  0
   -1.2927    1.1404   -2.0453 H   0  0  0  0  0  0  0  0  0  0  0  0
   -2.2020    1.6496    0.2201 H   0  0  0  0  0  0  0  0  0  0  0  0
   -3.2877    2.3023   -1.0387 H   0  0  0  0  0  0  0  0  0  0  0  0
   -4.4812    1.1963    0.8880 H   0  0  0  0  0  0  0  0  0  0  0  0
   -3.7162   -0.3712    0.4809 H   0  0  0  0  0  0  0  0  0  0  0  0
   -6.0736   -0.1270   -0.3900 H   0  0  0  0  0  0  0  0  0  0  0  0
   -4.8899   -0.4098   -1.7122 H   0  0  0  0  0  0  0  0  0  0  0  0
   -5.5440    1.2564   -1.4183 H   0  0  0  0  0  0  0  0  0  0  0  0
   -1.4606   -4.6090    1.4170 H   0  0  0  0  0  0  0  0  0  0  0  0
   -2.1351   -5.1417   -0.1683 H   0  0  0  0  0  0  0  0  0  0  0  0
   -0.3474   -5.0215    0.0357 H   0  0  0  0  0  0  0  0  0  0  0  0
    0.7093   -3.4355    1.6069 H   0  0  0  0  0  0  0  0  0  0  0  0
    2.2080   -1.6282    2.2782 H   0  0  0  0  0  0  0  0  0  0  0  0
    4.1033    2.6500    1.9212 H   0  0  0  0  0  0  0  0  0  0  0  0
    5.4483    1.5370    1.4386 H   0  0  0  0  0  0  0  0  0  0  0  0
    5.4102    3.6507   -0.1170 H   0  0  0  0  0  0  0  0  0  0  0  0
    2.6204    0.6468   -1.4089 H   0  0  0  0  0  0  0  0  0  0  0  0
  1  2  1  0
  2  3  1  0
  3  4  2  0
  4  5  1  0
  5  6  1  0
  6  7  1  0
  7  8  1  0
  8  9  1  0
  9 10  1  0
  5 11  2  0
 11 12  1  0
 12 13  1  0
 11 14  1  0
 14 15  2  0
  1 16  1  0
 16 17  1  0
 17 18  1  0
 18 19  2  0
 18 20  1  0
 20  1  1  0
 15  3  1  0
  1 21  1  6
  2 22  1  0
  2 23  1  0
  4 24  1  0
  7 25  1  0
  7 26  1  0
  8 27  1  0
  8 28  1  0
  9 29  1  0
  9 30  1  0
 10 31  1  0
 10 32  1  0
 10 33  1  0
 13 34  1  0
 13 35  1  0
 13 36  1  0
 14 37  1  0
 15 38  1  0
 16 39  1  0
 16 40  1  0
 17 41  1  0
 20 42  1  0
M  END
$$$$
