
     RDKit          3D

 44 46  0  0  0  0  0  0  0  0999 V2000
   -4.1299    0.3295    2.0458 C   0  0  0  0  0  0  0  0  0  0  0  0
   -4.1136   -0.5685    0.8140 C   0  0  0  0  0  0  0  0  0  0  0  0
   -3.3124    0.0602   -0.2920 C   0  0  0  0  0  0  0  0  0  0  0  0
   -3.7997    0.8510   -1.3293 C   0  0  0  0  0  0  0  0  0  0  0  0
   -5.2381    1.1706   -1.5884 C   0  0  0  0  0  0  0  0  0  0  0  0
   -2.7862    1.2838   -2.1094 N   0  0  0  0  0  0  0  0  0  0  0  0
   -1.6559    0.8044   -1.5608 C   0  0  0  0  0  0  0  0  0  0  0  0
   -1.9345    0.0455   -0.4525 C   0  0  0  0  0  0  0  0  0  0  0  0
   -0.8735   -0.5954    0.3387 C   0  0  0  0  0  0  0  0  0  0  0  0
   -1.1601   -1.3031    1.3415 O   0  0  0  0  0  0  0  0  0  0  0  0
    0.5644   -0.4655   -0.1390 C   0  0  0  0  0  0  0  0  0  0  0  0
    1.5477   -0.5074    1.0531 C   0  0  0  0  0  0  0  0  0  0  0  0
    2.9501   -0.3628    0.6031 N   0  0  0  0  0  0  0  0  0  0  0  0
    3.7878    0.1981    1.6829 C   0  0  0  0  0  0  0  0  0  0  0  0
    5.2854    0.1135    1.3262 C   0  0  0  0  0  0  0  0  0  0  0  0
    5.4608   -0.1566   -0.0497 O   0  0  0  0  0  0  0  0  0  0  0  0
    4.9590   -1.4468   -0.3520 C   0  0  0  0  0  0  0  0  0  0  0  0
    3.5137   -1.6497    0.1518 C   0  0  0  0  0  0  0  0  0  0  0  0
    0.7621    0.8375   -0.9682 C   0  0  0  0  0  0  0  0  0  0  0  0
   -0.2719    0.9840   -2.1026 C   0  0  0  0  0  0  0  0  0  0  0  0
   -3.0969    0.4930    2.4201 H   0  0  0  0  0  0  0  0  0  0  0  0
   -4.7267   -0.1519    2.8488 H   0  0  0  0  0  0  0  0  0  0  0  0
   -4.5891    1.3109    1.8004 H   0  0  0  0  0  0  0  0  0  0  0  0
   -3.6870   -1.5587    1.0769 H   0  0  0  0  0  0  0  0  0  0  0  0
   -5.1571   -0.7415    0.4751 H   0  0  0  0  0  0  0  0  0  0  0  0
   -5.7757    0.2475   -1.8892 H   0  0  0  0  0  0  0  0  0  0  0  0
   -5.3271    1.9209   -2.4018 H   0  0  0  0  0  0  0  0  0  0  0  0
   -5.7030    1.5851   -0.6696 H   0  0  0  0  0  0  0  0  0  0  0  0
   -2.8612    1.8757   -2.9667 H   0  0  0  0  0  0  0  0  0  0  0  0
    0.7606   -1.3327   -0.8038 H   0  0  0  0  0  0  0  0  0  0  0  0
    1.2734    0.3261    1.7409 H   0  0  0  0  0  0  0  0  0  0  0  0
    1.4166   -1.4535    1.6266 H   0  0  0  0  0  0  0  0  0  0  0  0
    3.5141    1.2661    1.8310 H   0  0  0  0  0  0  0  0  0  0  0  0
    3.6111   -0.3400    2.6427 H   0  0  0  0  0  0  0  0  0  0  0  0
    5.7759    1.0815    1.5630 H   0  0  0  0  0  0  0  0  0  0  0  0
    5.7909   -0.6624    1.9465 H   0  0  0  0  0  0  0  0  0  0  0  0
    5.6302   -2.2284    0.0694 H   0  0  0  0  0  0  0  0  0  0  0  0
    4.9767   -1.5688   -1.4560 H   0  0  0  0  0  0  0  0  0  0  0  0
    3.5164   -2.3868    0.9875 H   0  0  0  0  0  0  0  0  0  0  0  0
    2.9051   -2.0740   -0.6744 H   0  0  0  0  0  0  0  0  0  0  0  0
    1.7780    0.8475   -1.4191 H   0  0  0  0  0  0  0  0  0  0  0  0
    0.6817    1.7207   -0.2957 H   0  0  0  0  0  0  0  0  0  0  0  0
   -0.1766    1.9889   -2.5663 H   0  0  0  0  0  0  0  0  0  0  0  0
   -0.0858    0.2127   -2.8802 H   0  0  0  0  0  0  0  0  0  0  0  0
  1  2  1  0
  2  3  1  0
  3  4  2  0
  4  5  1  0
  4  6  1  0
  6  7  1  0
  7  8  2  0
  8  9  1  0
  9 10  2  0
  9 11  1  0
 11 12  1  0
 12 13  1  0
 13 14  1  0
 14 15  1  0
 15 16  1  0
 16 17  1  0
 17 18  1  0
 11 19  1  0
 19 20  1  0
  8  3  1  0
 18 13  1  0
 20  7  1  0
  1 21  1  0
  1 22  1  0
  1 23  1  0
  2 24  1  0
  2 25  1  0
  5 26  1  0
  5 27  1  0
  5 28  1  0
  6 29  1  0
 11 30  1  0
 12 31  1  0
 12 32  1  0
 14 33  1  0
 14 34  1  0
 15 35  1  0
 15 36  1  0
 17 37  1  0
 17 38  1  0
 18 39  1  0
 18 40  1  0
 19 41  1  0
 19 42  1  0
 20 43  1  0
 20 44  1  0
M  END
$$$$
