
     RDKit          3D

 80 81  0  0  0  0  0  0  0  0999 V2000
    2.8560    1.2269   -0.9870 N   0  0  0  0  0  0  0  0  0  0  0  0
    2.2070   -0.0700   -1.2143 C   0  0  1  0  0  0  0  0  0  0  0  0
    2.1713   -0.9363    0.0753 C   0  0  0  0  0  0  0  0  0  0  0  0
    1.6037   -0.3130    1.3816 C   0  0  0  0  0  0  0  0  0  0  0  0
    0.1968    0.2713    1.2266 C   0  0  0  0  0  0  0  0  0  0  0  0
    2.5529    0.6972    2.0432 C   0  0  0  0  0  0  0  0  0  0  0  0
    0.8440    0.0740   -1.8570 C   0  0  0  0  0  0  0  0  0  0  0  0
    0.2744    1.1986   -1.9101 O   0  0  0  0  0  0  0  0  0  0  0  0
    0.2018   -1.0783   -2.4238 N   0  0  0  0  0  0  0  0  0  0  0  0
   -1.1898   -1.0522   -2.8798 C   0  0  1  0  0  0  0  0  0  0  0  0
   -1.4263   -2.0850   -4.0097 C   0  0  0  0  0  0  0  0  0  0  0  0
   -0.8355   -1.7151   -5.3947 C   0  0  0  0  0  0  0  0  0  0  0  0
   -1.4800   -0.4585   -5.9972 C   0  0  0  0  0  0  0  0  0  0  0  0
    0.6937   -1.5945   -5.3867 C   0  0  0  0  0  0  0  0  0  0  0  0
   -2.0820   -1.3369   -1.7005 C   0  0  0  0  0  0  0  0  0  0  0  0
   -2.1980   -2.5188   -1.2736 O   0  0  0  0  0  0  0  0  0  0  0  0
   -2.7343   -0.2573   -1.0154 N   0  0  0  0  0  0  0  0  0  0  0  0
   -3.5285   -0.4747    0.1970 C   0  0  1  0  0  0  0  0  0  0  0  0
   -3.7214    0.8543    0.9525 C   0  0  0  0  0  0  0  0  0  0  0  0
   -4.3797    0.6386    2.2919 C   0  0  0  0  0  0  0  0  0  0  0  0
   -5.7657    0.8119    2.4397 C   0  0  0  0  0  0  0  0  0  0  0  0
   -6.3786    0.5712    3.6730 C   0  0  0  0  0  0  0  0  0  0  0  0
   -5.6136    0.1490    4.7688 C   0  0  0  0  0  0  0  0  0  0  0  0
   -6.2133   -0.0944    6.0022 O   0  0  0  0  0  0  0  0  0  0  0  0
   -4.2345   -0.0327    4.6234 C   0  0  0  0  0  0  0  0  0  0  0  0
   -3.6195    0.2065    3.3909 C   0  0  0  0  0  0  0  0  0  0  0  0
   -4.8630   -1.0816   -0.1753 C   0  0  0  0  0  0  0  0  0  0  0  0
   -5.5691   -0.5282   -1.0054 O   0  0  0  0  0  0  0  0  0  0  0  0
   -5.3465   -2.3491    0.4659 C   0  0  0  0  0  0  0  0  0  0  0  0
   -5.5000   -3.3271   -0.4989 F   0  0  0  0  0  0  0  0  0  0  0  0
    4.2668    1.3473   -0.7743 C   0  0  0  0  0  0  0  0  0  0  0  0
    5.0210    0.3452   -0.9128 O   0  0  0  0  0  0  0  0  0  0  0  0
    4.7935    2.5827   -0.3842 O   0  0  0  0  0  0  0  0  0  0  0  0
    6.1121    2.7371    0.1343 C   0  0  0  0  0  0  0  0  0  0  0  0
    6.1910    2.1441    1.5145 C   0  0  0  0  0  0  0  0  0  0  0  0
    5.5342    2.7731    2.5847 C   0  0  0  0  0  0  0  0  0  0  0  0
    5.5536    2.1981    3.8591 C   0  0  0  0  0  0  0  0  0  0  0  0
    6.2234    0.9901    4.0720 C   0  0  0  0  0  0  0  0  0  0  0  0
    6.8740    0.3550    3.0105 C   0  0  0  0  0  0  0  0  0  0  0  0
    6.8567    0.9267    1.7344 C   0  0  0  0  0  0  0  0  0  0  0  0
    2.2823    2.0929   -0.8764 H   0  0  0  0  0  0  0  0  0  0  0  0
    2.8191   -0.6254   -1.9593 H   0  0  0  0  0  0  0  0  0  0  0  0
    1.5936   -1.8619   -0.1386 H   0  0  0  0  0  0  0  0  0  0  0  0
    3.2049   -1.2888    0.2835 H   0  0  0  0  0  0  0  0  0  0  0  0
    1.5124   -1.1588    2.0999 H   0  0  0  0  0  0  0  0  0  0  0  0
   -0.2347    0.4841    2.2276 H   0  0  0  0  0  0  0  0  0  0  0  0
    0.2206    1.2220    0.6568 H   0  0  0  0  0  0  0  0  0  0  0  0
   -0.4653   -0.4565    0.7142 H   0  0  0  0  0  0  0  0  0  0  0  0
    3.5916    0.3043    2.0620 H   0  0  0  0  0  0  0  0  0  0  0  0
    2.2372    0.8743    3.0935 H   0  0  0  0  0  0  0  0  0  0  0  0
    2.5394    1.6752    1.5225 H   0  0  0  0  0  0  0  0  0  0  0  0
    0.6927   -1.9994   -2.3661 H   0  0  0  0  0  0  0  0  0  0  0  0
   -1.4415   -0.0451   -3.2699 H   0  0  0  0  0  0  0  0  0  0  0  0
   -1.0222   -3.0740   -3.6989 H   0  0  0  0  0  0  0  0  0  0  0  0
   -2.5228   -2.2259   -4.1401 H   0  0  0  0  0  0  0  0  0  0  0  0
   -1.0860   -2.5601   -6.0746 H   0  0  0  0  0  0  0  0  0  0  0  0
   -2.5874   -0.5292   -5.9482 H   0  0  0  0  0  0  0  0  0  0  0  0
   -1.1879   -0.3621   -7.0647 H   0  0  0  0  0  0  0  0  0  0  0  0
   -1.1501    0.4594   -5.4675 H   0  0  0  0  0  0  0  0  0  0  0  0
    1.0718   -1.5419   -6.4300 H   0  0  0  0  0  0  0  0  0  0  0  0
    1.0206   -0.6754   -4.8571 H   0  0  0  0  0  0  0  0  0  0  0  0
    1.1496   -2.4825   -4.8996 H   0  0  0  0  0  0  0  0  0  0  0  0
   -2.6164    0.7140   -1.3843 H   0  0  0  0  0  0  0  0  0  0  0  0
   -2.9647   -1.1622    0.8663 H   0  0  0  0  0  0  0  0  0  0  0  0
   -2.7289    1.3301    1.1128 H   0  0  0  0  0  0  0  0  0  0  0  0
   -4.3189    1.5624    0.3362 H   0  0  0  0  0  0  0  0  0  0  0  0
   -6.3718    1.1270    1.5993 H   0  0  0  0  0  0  0  0  0  0  0  0
   -7.4474    0.7092    3.7749 H   0  0  0  0  0  0  0  0  0  0  0  0
   -7.2099    0.0271    6.1395 H   0  0  0  0  0  0  0  0  0  0  0  0
   -3.6396   -0.3636    5.4652 H   0  0  0  0  0  0  0  0  0  0  0  0
   -2.5527    0.0507    3.2911 H   0  0  0  0  0  0  0  0  0  0  0  0
   -4.6321   -2.7107    1.2345 H   0  0  0  0  0  0  0  0  0  0  0  0
   -6.3241   -2.1637    0.9583 H   0  0  0  0  0  0  0  0  0  0  0  0
    6.3480    3.8208    0.1903 H   0  0  0  0  0  0  0  0  0  0  0  0
    6.8518    2.2730   -0.5545 H   0  0  0  0  0  0  0  0  0  0  0  0
    4.9994    3.7019    2.4285 H   0  0  0  0  0  0  0  0  0  0  0  0
    5.0440    2.6856    4.6800 H   0  0  0  0  0  0  0  0  0  0  0  0
    6.2350    0.5445    5.0582 H   0  0  0  0  0  0  0  0  0  0  0  0
    7.3876   -0.5833    3.1754 H   0  0  0  0  0  0  0  0  0  0  0  0
    7.3544    0.4169    0.9190 H   0  0  0  0  0  0  0  0  0  0  0  0
  1  2  1  0
  2  3  1  0
  3  4  1  0
  4  5  1  0
  4  6  1  0
  2  7  1  0
  7  8  2  0
  7  9  1  0
  9 10  1  0
 10 11  1  0
 11 12  1  0
 12 13  1  0
 12 14  1  0
 10 15  1  0
 15 16  2  0
 15 17  1  0
 17 18  1  0
 18 19  1  0
 19 20  1  0
 20 21  2  0
 21 22  1  0
 22 23  2  0
 23 24  1  0
 23 25  1  0
 25 26  2  0
 18 27  1  0
 27 28  2  0
 27 29  1  0
 29 30  1  0
  1 31  1  0
 31 32  2  0
 31 33  1  0
 33 34  1  0
 34 35  1  0
 35 36  2  0
 36 37  1  0
 37 38  2  0
 38 39  1  0
 39 40  2  0
 26 20  1  0
 40 35  1  0
  1 41  1  0
  2 42  1  6
  3 43  1  0
  3 44  1  0
  4 45  1  0
  5 46  1  0
  5 47  1  0
  5 48  1  0
  6 49  1  0
  6 50  1  0
  6 51  1  0
  9 52  1  0
 10 53  1  6
 11 54  1  0
 11 55  1  0
 12 56  1  0
 13 57  1  0
 13 58  1  0
 13 59  1  0
 14 60  1  0
 14 61  1  0
 14 62  1  0
 17 63  1  0
 18 64  1  1
 19 65  1  0
 19 66  1  0
 21 67  1  0
 22 68  1  0
 24 69  1  0
 25 70  1  0
 26 71  1  0
 29 72  1  0
 29 73  1  0
 34 74  1  0
 34 75  1  0
 36 76  1  0
 37 77  1  0
 38 78  1  0
 39 79  1  0
 40 80  1  0
M  END
$$$$
