
     RDKit          3D

 17 17  0  0  0  0  0  0  0  0999 V2000
    2.7399   -0.3460    0.0306 C   0  0  0  0  0  0  0  0  0  0  0  0
    1.6600    0.5803    0.0885 O   0  0  0  0  0  0  0  0  0  0  0  0
    0.3031    0.2250    0.0267 C   0  0  0  0  0  0  0  0  0  0  0  0
   -0.6706    1.2407    0.0950 C   0  0  0  0  0  0  0  0  0  0  0  0
   -0.3059    2.5810    0.2219 O   0  0  0  0  0  0  0  0  0  0  0  0
   -2.0303    0.9132    0.0356 C   0  0  0  0  0  0  0  0  0  0  0  0
   -2.4302   -0.4186   -0.0914 C   0  0  0  0  0  0  0  0  0  0  0  0
   -1.4725   -1.4317   -0.1598 C   0  0  0  0  0  0  0  0  0  0  0  0
   -0.1122   -1.1163   -0.1015 C   0  0  0  0  0  0  0  0  0  0  0  0
    2.6784   -1.0580    0.8805 H   0  0  0  0  0  0  0  0  0  0  0  0
    3.6976    0.2092    0.1012 H   0  0  0  0  0  0  0  0  0  0  0  0
    2.7190   -0.8972   -0.9332 H   0  0  0  0  0  0  0  0  0  0  0  0
    0.6623    2.8747    0.2696 H   0  0  0  0  0  0  0  0  0  0  0  0
   -2.7782    1.6943    0.0881 H   0  0  0  0  0  0  0  0  0  0  0  0
   -3.4831   -0.6655   -0.1369 H   0  0  0  0  0  0  0  0  0  0  0  0
   -1.7844   -2.4635   -0.2583 H   0  0  0  0  0  0  0  0  0  0  0  0
    0.6073   -1.9216   -0.1568 H   0  0  0  0  0  0  0  0  0  0  0  0
  1  2  1  0
  2  3  1  0
  3  4  2  0
  4  5  1  0
  4  6  1  0
  6  7  2  0
  7  8  1  0
  8  9  2  0
  9  3  1  0
  1 10  1  0
  1 11  1  0
  1 12  1  0
  5 13  1  0
  6 14  1  0
  7 15  1  0
  8 16  1  0
  9 17  1  0
M  END
$$$$
