
     RDKit          3D

 54 56  0  0  0  0  0  0  0  0999 V2000
   -2.7586    3.9052    1.8315 C   0  0  0  0  0  0  0  0  0  0  0  0
   -2.9061    2.7075    0.8940 C   0  0  0  0  0  0  0  0  0  0  0  0
   -2.3909    1.3945    1.5089 C   0  0  0  0  0  0  0  0  0  0  0  0
   -0.8819    1.3749    1.8100 C   0  0  0  0  0  0  0  0  0  0  0  0
   -0.0461    1.4989    0.5648 C   0  0  0  0  0  0  0  0  0  0  0  0
    0.2655    2.6976    0.0233 N   0  0  0  0  0  0  0  0  0  0  0  0
    1.0053    2.3981   -1.0617 C   0  0  0  0  0  0  0  0  0  0  0  0
    1.1322    1.0314   -1.1596 C   0  0  0  0  0  0  0  0  0  0  0  0
    1.8811    0.3053   -2.1993 C   0  0  0  0  0  0  0  0  0  0  0  0
    3.2289    0.2657   -2.2497 C   0  0  0  0  0  0  0  0  0  0  0  0
    4.0763    0.9657   -1.2040 C   0  0  0  0  0  0  0  0  0  0  0  0
    3.9829    0.2674    0.1199 C   0  0  0  0  0  0  0  0  0  0  0  0
    4.2624   -1.0722    0.3617 C   0  0  0  0  0  0  0  0  0  0  0  0
    4.0700   -1.4418    1.6980 C   0  0  0  0  0  0  0  0  0  0  0  0
    3.6491   -0.3972    2.5111 C   0  0  0  0  0  0  0  0  0  0  0  0
    3.5160    0.9874    1.5663 S   0  0  0  0  0  0  0  0  0  0  0  0
    3.9019   -0.5518   -3.2909 C   0  0  0  0  0  0  0  0  0  0  0  0
    5.2836   -0.7216   -3.2645 O   0  0  0  0  0  0  0  0  0  0  0  0
    3.2339   -1.1034   -4.2079 O   0  0  0  0  0  0  0  0  0  0  0  0
    0.4655    0.4586   -0.1384 N   0  0  0  0  0  0  0  0  0  0  0  0
    0.4073   -0.9727    0.1851 C   0  0  0  0  0  0  0  0  0  0  0  0
   -0.9798   -1.5146   -0.0280 C   0  0  0  0  0  0  0  0  0  0  0  0
   -1.5923   -1.4109   -1.2856 C   0  0  0  0  0  0  0  0  0  0  0  0
   -2.8855   -1.9019   -1.4846 C   0  0  0  0  0  0  0  0  0  0  0  0
   -3.5860   -2.5137   -0.4299 C   0  0  0  0  0  0  0  0  0  0  0  0
   -2.9636   -2.6291    0.8248 C   0  0  0  0  0  0  0  0  0  0  0  0
   -1.6702   -2.1377    1.0227 C   0  0  0  0  0  0  0  0  0  0  0  0
   -4.9571   -3.0306   -0.6338 C   0  0  0  0  0  0  0  0  0  0  0  0
   -5.6431   -3.6345    0.4168 O   0  0  0  0  0  0  0  0  0  0  0  0
   -5.5173   -2.9290   -1.7589 O   0  0  0  0  0  0  0  0  0  0  0  0
   -1.6903    4.1785    1.9540 H   0  0  0  0  0  0  0  0  0  0  0  0
   -3.2018    3.6796    2.8247 H   0  0  0  0  0  0  0  0  0  0  0  0
   -3.2886    4.7796    1.3984 H   0  0  0  0  0  0  0  0  0  0  0  0
   -3.9859    2.5793    0.6633 H   0  0  0  0  0  0  0  0  0  0  0  0
   -2.3913    2.9170   -0.0670 H   0  0  0  0  0  0  0  0  0  0  0  0
   -2.9442    1.1953    2.4523 H   0  0  0  0  0  0  0  0  0  0  0  0
   -2.6365    0.5674    0.8115 H   0  0  0  0  0  0  0  0  0  0  0  0
   -0.6366    0.4294    2.3353 H   0  0  0  0  0  0  0  0  0  0  0  0
   -0.6184    2.1920    2.5130 H   0  0  0  0  0  0  0  0  0  0  0  0
    1.4276    3.1330   -1.7341 H   0  0  0  0  0  0  0  0  0  0  0  0
    1.2936   -0.2785   -2.8964 H   0  0  0  0  0  0  0  0  0  0  0  0
    5.1428    1.0042   -1.5077 H   0  0  0  0  0  0  0  0  0  0  0  0
    3.7515    2.0219   -1.0984 H   0  0  0  0  0  0  0  0  0  0  0  0
    4.5867   -1.7643   -0.4043 H   0  0  0  0  0  0  0  0  0  0  0  0
    4.2336   -2.4467    2.0635 H   0  0  0  0  0  0  0  0  0  0  0  0
    3.4431   -0.4653    3.5705 H   0  0  0  0  0  0  0  0  0  0  0  0
    5.7532   -1.2790   -3.9681 H   0  0  0  0  0  0  0  0  0  0  0  0
    1.1113   -1.5472   -0.4537 H   0  0  0  0  0  0  0  0  0  0  0  0
    0.7468   -1.1256    1.2321 H   0  0  0  0  0  0  0  0  0  0  0  0
   -1.0718   -0.9419   -2.1109 H   0  0  0  0  0  0  0  0  0  0  0  0
   -3.3365   -1.8012   -2.4638 H   0  0  0  0  0  0  0  0  0  0  0  0
   -3.4758   -3.0973    1.6559 H   0  0  0  0  0  0  0  0  0  0  0  0
   -1.2133   -2.2343    1.9997 H   0  0  0  0  0  0  0  0  0  0  0  0
   -6.5824   -3.9915    0.2880 H   0  0  0  0  0  0  0  0  0  0  0  0
  1  2  1  0
  2  3  1  0
  3  4  1  0
  4  5  1  0
  5  6  2  0
  6  7  1  0
  7  8  2  0
  8  9  1  0
  9 10  2  0
 10 11  1  0
 11 12  1  0
 12 13  2  0
 13 14  1  0
 14 15  2  0
 15 16  1  0
 10 17  1  0
 17 18  1  0
 17 19  2  0
  8 20  1  0
 20 21  1  0
 21 22  1  0
 22 23  2  0
 23 24  1  0
 24 25  2  0
 25 26  1  0
 26 27  2  0
 25 28  1  0
 28 29  1  0
 28 30  2  0
 20  5  1  0
 27 22  1  0
 16 12  1  0
  1 31  1  0
  1 32  1  0
  1 33  1  0
  2 34  1  0
  2 35  1  0
  3 36  1  0
  3 37  1  0
  4 38  1  0
  4 39  1  0
  7 40  1  0
  9 41  1  0
 11 42  1  0
 11 43  1  0
 13 44  1  0
 14 45  1  0
 15 46  1  0
 18 47  1  0
 21 48  1  0
 21 49  1  0
 23 50  1  0
 24 51  1  0
 26 52  1  0
 27 53  1  0
 29 54  1  0
M  END
$$$$
