
     RDKit          3D

 52 55  0  0  0  0  0  0  0  0999 V2000
    3.3747   -0.1945    3.1048 C   0  0  0  0  0  0  0  0  0  0  0  0
    3.0262   -0.1607    1.6680 N   0  0  1  0  0  4  0  0  0  0  0  0
    4.2528    0.0985    0.8589 C   0  0  0  0  0  0  0  0  0  0  0  0
    3.9251    0.1309   -0.6561 C   0  0  0  0  0  0  0  0  0  0  0  0
    2.4172   -0.1027   -0.8566 C   0  0  1  0  0  0  0  0  0  0  0  0
    2.0619   -1.4698   -0.2402 C   0  0  0  0  0  0  0  0  0  0  0  0
    2.4367   -1.4696    1.2631 C   0  0  0  0  0  0  0  0  0  0  0  0
    1.6569    1.0035   -0.0896 C   0  0  0  0  0  0  0  0  0  0  0  0
    2.0316    0.9227    1.4168 C   0  0  0  0  0  0  0  0  0  0  0  0
    0.2466    0.8430   -0.2441 O   0  0  0  0  0  0  0  0  0  0  0  0
   -0.4539    1.1983   -1.4036 C   0  0  0  0  0  0  0  0  0  0  0  0
    0.1453    1.7598   -2.3625 O   0  0  0  0  0  0  0  0  0  0  0  0
   -1.9266    0.8648   -1.5157 C   0  0  0  0  0  0  0  0  0  0  0  0
   -2.4487    1.5396   -2.6390 O   0  0  0  0  0  0  0  0  0  0  0  0
   -2.5911    1.3708   -0.2272 C   0  0  0  0  0  0  0  0  0  0  0  0
   -2.4955    0.6271    0.9700 C   0  0  0  0  0  0  0  0  0  0  0  0
   -3.0505    1.1113    2.1574 C   0  0  0  0  0  0  0  0  0  0  0  0
   -3.6896    2.3515    2.1770 C   0  0  0  0  0  0  0  0  0  0  0  0
   -3.7648    3.1156    1.0116 C   0  0  0  0  0  0  0  0  0  0  0  0
   -3.2108    2.6377   -0.1798 C   0  0  0  0  0  0  0  0  0  0  0  0
   -2.1407   -0.6440   -1.7300 C   0  0  0  0  0  0  0  0  0  0  0  0
   -1.1516   -1.4574   -2.3288 C   0  0  0  0  0  0  0  0  0  0  0  0
   -1.3868   -2.8157   -2.5596 C   0  0  0  0  0  0  0  0  0  0  0  0
   -2.6205   -3.3794   -2.2342 C   0  0  0  0  0  0  0  0  0  0  0  0
   -3.6286   -2.5823   -1.6920 C   0  0  0  0  0  0  0  0  0  0  0  0
   -3.3992   -1.2239   -1.4568 C   0  0  0  0  0  0  0  0  0  0  0  0
    4.1148   -0.9984    3.3157 H   0  0  0  0  0  0  0  0  0  0  0  0
    2.4730   -0.3860    3.7284 H   0  0  0  0  0  0  0  0  0  0  0  0
    3.8175    0.7734    3.4295 H   0  0  0  0  0  0  0  0  0  0  0  0
    4.7128    1.0703    1.1514 H   0  0  0  0  0  0  0  0  0  0  0  0
    5.0169   -0.6903    1.0475 H   0  0  0  0  0  0  0  0  0  0  0  0
    4.5031   -0.6555   -1.1897 H   0  0  0  0  0  0  0  0  0  0  0  0
    4.2165    1.1126   -1.0902 H   0  0  0  0  0  0  0  0  0  0  0  0
    2.1656   -0.0843   -1.9389 H   0  0  0  0  0  0  0  0  0  0  0  0
    0.9766   -1.6752   -0.3606 H   0  0  0  0  0  0  0  0  0  0  0  0
    2.6125   -2.2768   -0.7717 H   0  0  0  0  0  0  0  0  0  0  0  0
    3.1570   -2.2972    1.4573 H   0  0  0  0  0  0  0  0  0  0  0  0
    1.5242   -1.6878    1.8643 H   0  0  0  0  0  0  0  0  0  0  0  0
    1.9557    2.0033   -0.4794 H   0  0  0  0  0  0  0  0  0  0  0  0
    2.4428    1.9070    1.7389 H   0  0  0  0  0  0  0  0  0  0  0  0
    1.1135    0.7513    2.0255 H   0  0  0  0  0  0  0  0  0  0  0  0
   -3.4196    1.3349   -2.6967 H   0  0  0  0  0  0  0  0  0  0  0  0
   -1.9851   -0.3278    0.9859 H   0  0  0  0  0  0  0  0  0  0  0  0
   -2.9777    0.5267    3.0654 H   0  0  0  0  0  0  0  0  0  0  0  0
   -4.1165    2.7259    3.0984 H   0  0  0  0  0  0  0  0  0  0  0  0
   -4.2460    4.0850    1.0326 H   0  0  0  0  0  0  0  0  0  0  0  0
   -3.2634    3.2652   -1.0598 H   0  0  0  0  0  0  0  0  0  0  0  0
   -0.1943   -1.0512   -2.6250 H   0  0  0  0  0  0  0  0  0  0  0  0
   -0.6130   -3.4299   -3.0020 H   0  0  0  0  0  0  0  0  0  0  0  0
   -2.8010   -4.4307   -2.4177 H   0  0  0  0  0  0  0  0  0  0  0  0
   -4.5934   -3.0151   -1.4612 H   0  0  0  0  0  0  0  0  0  0  0  0
   -4.2084   -0.6243   -1.0598 H   0  0  0  0  0  0  0  0  0  0  0  0
  2  1  1  1
  2  3  1  0
  3  4  1  0
  4  5  1  0
  5  6  1  0
  6  7  1  0
  5  8  1  0
  8  9  1  0
  8 10  1  0
 10 11  1  0
 11 12  2  0
 11 13  1  0
 13 14  1  0
 13 15  1  0
 15 16  2  0
 16 17  1  0
 17 18  2  0
 18 19  1  0
 19 20  2  0
 13 21  1  0
 21 22  2  0
 22 23  1  0
 23 24  2  0
 24 25  1  0
 25 26  2  0
  7  2  1  0
 20 15  1  0
 26 21  1  0
  9  2  1  0
  1 27  1  0
  1 28  1  0
  1 29  1  0
  3 30  1  0
  3 31  1  0
  4 32  1  0
  4 33  1  0
  5 34  1  6
  6 35  1  0
  6 36  1  0
  7 37  1  0
  7 38  1  0
  8 39  1  0
  9 40  1  0
  9 41  1  0
 14 42  1  0
 16 43  1  0
 17 44  1  0
 18 45  1  0
 19 46  1  0
 20 47  1  0
 22 48  1  0
 23 49  1  0
 24 50  1  0
 25 51  1  0
 26 52  1  0
M  CHG  1   2   1
M  END
$$$$
