
     RDKit          3D

 40 42  0  0  0  0  0  0  0  0999 V2000
    3.1000    4.1904    1.9620 C   0  0  0  0  0  0  0  0  0  0  0  0
    1.9328    3.3304    1.8128 N   0  0  0  0  0  0  0  0  0  0  0  0
    0.6887    3.5266    2.3184 C   0  0  0  0  0  0  0  0  0  0  0  0
   -0.2117    2.5889    1.9114 N   0  0  0  0  0  0  0  0  0  0  0  0
    0.5265    1.7960    1.1106 C   0  0  0  0  0  0  0  0  0  0  0  0
    1.8009    2.2436    1.0449 C   0  0  0  0  0  0  0  0  0  0  0  0
    2.7496    1.6461    0.2846 N   0  0  0  0  0  0  0  0  0  0  0  0
    2.3939    0.5384   -0.4357 C   0  0  0  0  0  0  0  0  0  0  0  0
    3.3730   -0.1197   -1.2490 N   0  0  0  0  0  0  0  0  0  0  0  0
    3.0751   -1.3155   -2.0363 C   0  0  0  0  0  0  0  0  0  0  0  0
    2.9538   -2.5497   -1.1391 C   0  0  0  0  0  0  0  0  0  0  0  0
    4.1687   -2.8068   -0.4878 O   0  0  0  0  0  0  0  0  0  0  0  0
    1.1041    0.0674   -0.3816 N   0  0  0  0  0  0  0  0  0  0  0  0
    0.1462    0.6743    0.3830 C   0  0  0  0  0  0  0  0  0  0  0  0
   -1.1949    0.1696    0.4261 N   0  0  0  0  0  0  0  0  0  0  0  0
   -1.5841   -1.0169   -0.3349 C   0  0  0  0  0  0  0  0  0  0  0  0
   -3.0357   -1.3402   -0.1070 C   0  0  0  0  0  0  0  0  0  0  0  0
   -3.4173   -2.1690    0.9611 C   0  0  0  0  0  0  0  0  0  0  0  0
   -4.7696   -2.4385    1.1944 C   0  0  0  0  0  0  0  0  0  0  0  0
   -5.7485   -1.8741    0.3717 C   0  0  0  0  0  0  0  0  0  0  0  0
   -5.3770   -1.0355   -0.6828 C   0  0  0  0  0  0  0  0  0  0  0  0
   -4.0258   -0.7634   -0.9196 C   0  0  0  0  0  0  0  0  0  0  0  0
    3.1393    4.9123    1.1197 H   0  0  0  0  0  0  0  0  0  0  0  0
    4.0263    3.5778    1.9637 H   0  0  0  0  0  0  0  0  0  0  0  0
    3.0425    4.7493    2.9200 H   0  0  0  0  0  0  0  0  0  0  0  0
    0.4303    4.3513    2.9701 H   0  0  0  0  0  0  0  0  0  0  0  0
    4.3265    0.3015   -1.3241 H   0  0  0  0  0  0  0  0  0  0  0  0
    3.8914   -1.4843   -2.7718 H   0  0  0  0  0  0  0  0  0  0  0  0
    2.1324   -1.1667   -2.6061 H   0  0  0  0  0  0  0  0  0  0  0  0
    2.7023   -3.4261   -1.7727 H   0  0  0  0  0  0  0  0  0  0  0  0
    2.1286   -2.4251   -0.4021 H   0  0  0  0  0  0  0  0  0  0  0  0
    4.1976   -2.2132    0.3075 H   0  0  0  0  0  0  0  0  0  0  0  0
   -1.9023    0.6622    1.0189 H   0  0  0  0  0  0  0  0  0  0  0  0
   -1.4017   -0.8381   -1.4172 H   0  0  0  0  0  0  0  0  0  0  0  0
   -0.9520   -1.8781   -0.0260 H   0  0  0  0  0  0  0  0  0  0  0  0
   -2.6690   -2.6042    1.6119 H   0  0  0  0  0  0  0  0  0  0  0  0
   -5.0588   -3.0817    2.0154 H   0  0  0  0  0  0  0  0  0  0  0  0
   -6.7947   -2.0825    0.5545 H   0  0  0  0  0  0  0  0  0  0  0  0
   -6.1362   -0.5929   -1.3146 H   0  0  0  0  0  0  0  0  0  0  0  0
   -3.7514   -0.1038   -1.7336 H   0  0  0  0  0  0  0  0  0  0  0  0
  1  2  1  0
  2  3  1  0
  3  4  2  0
  4  5  1  0
  5  6  2  0
  6  7  1  0
  7  8  2  0
  8  9  1  0
  9 10  1  0
 10 11  1  0
 11 12  1  0
  8 13  1  0
 13 14  2  0
 14 15  1  0
 15 16  1  0
 16 17  1  0
 17 18  2  0
 18 19  1  0
 19 20  2  0
 20 21  1  0
 21 22  2  0
  6  2  1  0
 22 17  1  0
 14  5  1  0
  1 23  1  0
  1 24  1  0
  1 25  1  0
  3 26  1  0
  9 27  1  0
 10 28  1  0
 10 29  1  0
 11 30  1  0
 11 31  1  0
 12 32  1  0
 15 33  1  0
 16 34  1  0
 16 35  1  0
 18 36  1  0
 19 37  1  0
 20 38  1  0
 21 39  1  0
 22 40  1  0
M  END
$$$$
