
     RDKit          3D

 77 80  0  0  0  0  0  0  0  0999 V2000
   -4.2908   -4.4921    0.4865 C   0  0  0  0  0  0  0  0  0  0  0  0
   -3.7439   -3.1701    0.9146 C   0  0  0  0  0  0  0  0  0  0  0  0
   -3.6563   -2.9020    2.1431 O   0  0  0  0  0  0  0  0  0  0  0  0
   -3.3170   -2.2214   -0.0759 N   0  0  0  0  0  0  0  0  0  0  0  0
   -2.8415   -0.8671    0.2303 C   0  0  1  0  0  0  0  0  0  0  0  0
   -3.9687    0.0022    0.8271 C   0  0  0  0  0  0  0  0  0  0  0  0
   -5.1334    0.1150   -0.1233 C   0  0  0  0  0  0  0  0  0  0  0  0
   -6.2395   -0.7388    0.0037 C   0  0  0  0  0  0  0  0  0  0  0  0
   -7.3023   -0.6571   -0.8998 C   0  0  0  0  0  0  0  0  0  0  0  0
   -7.2694    0.2678   -1.9586 C   0  0  0  0  0  0  0  0  0  0  0  0
   -6.1640    1.1290   -2.0758 C   0  0  0  0  0  0  0  0  0  0  0  0
   -5.1010    1.0456   -1.1724 C   0  0  0  0  0  0  0  0  0  0  0  0
   -8.4376    0.3896   -2.9086 C   0  0  0  0  0  0  0  0  0  0  0  0
   -8.0001    0.7817   -4.1622 F   0  0  0  0  0  0  0  0  0  0  0  0
   -9.0847   -0.8270   -3.0419 F   0  0  0  0  0  0  0  0  0  0  0  0
   -9.6206    1.6231   -2.2825 P   0  0  0  0  0  5  0  0  0  0  0  0
   -8.8532    3.1256   -2.1452 O   0  0  0  0  0  0  0  0  0  0  0  0
  -10.2043    1.1416   -0.7684 O   0  0  0  0  0  0  0  0  0  0  0  0
  -10.7781    1.7389   -3.2480 O   0  0  0  0  0  0  0  0  0  0  0  0
   -1.6186   -0.9294    1.1121 C   0  0  0  0  0  0  0  0  0  0  0  0
   -1.6899   -0.6049    2.3298 O   0  0  0  0  0  0  0  0  0  0  0  0
   -0.3772   -1.3973    0.5651 N   0  0  0  0  0  0  0  0  0  0  0  0
    0.8526   -1.4689    1.3639 C   0  0  1  0  0  0  0  0  0  0  0  0
    1.8505   -2.4419    0.7050 C   0  0  0  0  0  0  0  0  0  0  0  0
    2.8826   -3.0040    1.6934 C   0  0  0  0  0  0  0  0  0  0  0  0
    3.8520   -1.9474    2.2379 C   0  0  0  0  0  0  0  0  0  0  0  0
    3.1715   -0.9406    3.1765 C   0  0  0  0  0  0  0  0  0  0  0  0
    2.5563    0.1574    2.4161 N   0  0  0  0  0  0  0  0  0  0  0  0
    3.1138    1.5131    2.5406 C   0  0  0  0  0  0  0  0  0  0  0  0
    4.2230    1.7127    1.5427 C   0  0  0  0  0  0  0  0  0  0  0  0
    5.5287    1.2999    1.8466 C   0  0  0  0  0  0  0  0  0  0  0  0
    6.5519    1.4395    0.9052 C   0  0  0  0  0  0  0  0  0  0  0  0
    6.2871    1.9909   -0.3611 C   0  0  0  0  0  0  0  0  0  0  0  0
    4.9759    2.4003   -0.6628 C   0  0  0  0  0  0  0  0  0  0  0  0
    3.9536    2.2602    0.2797 C   0  0  0  0  0  0  0  0  0  0  0  0
    7.3732    2.1353   -1.3639 C   0  0  0  0  0  0  0  0  0  0  0  0
    7.1355    1.8518   -2.7224 C   0  0  0  0  0  0  0  0  0  0  0  0
    8.1602    1.9876   -3.6641 C   0  0  0  0  0  0  0  0  0  0  0  0
    9.4301    2.4077   -3.2626 C   0  0  0  0  0  0  0  0  0  0  0  0
    9.6785    2.6924   -1.9181 C   0  0  0  0  0  0  0  0  0  0  0  0
    8.6580    2.5573   -0.9719 C   0  0  0  0  0  0  0  0  0  0  0  0
    1.4688   -0.0937    1.4983 C   0  0  0  0  0  0  0  0  0  0  0  0
    1.0398    0.8427    0.7684 O   0  0  0  0  0  0  0  0  0  0  0  0
   -3.5078   -5.0577   -0.0602 H   0  0  0  0  0  0  0  0  0  0  0  0
   -5.1622   -4.3332   -0.1826 H   0  0  0  0  0  0  0  0  0  0  0  0
   -4.6170   -5.0854    1.3671 H   0  0  0  0  0  0  0  0  0  0  0  0
   -3.3569   -2.5070   -1.0806 H   0  0  0  0  0  0  0  0  0  0  0  0
   -2.5249   -0.3854   -0.7220 H   0  0  0  0  0  0  0  0  0  0  0  0
   -3.5733    1.0205    1.0377 H   0  0  0  0  0  0  0  0  0  0  0  0
   -4.3110   -0.4134    1.7993 H   0  0  0  0  0  0  0  0  0  0  0  0
   -6.2809   -1.4673    0.8039 H   0  0  0  0  0  0  0  0  0  0  0  0
   -8.1525   -1.3145   -0.7683 H   0  0  0  0  0  0  0  0  0  0  0  0
   -6.1237    1.8685   -2.8657 H   0  0  0  0  0  0  0  0  0  0  0  0
   -4.2525    1.7085   -1.2890 H   0  0  0  0  0  0  0  0  0  0  0  0
   -9.5258    3.7148   -1.7194 H   0  0  0  0  0  0  0  0  0  0  0  0
   -9.4620    1.3267   -0.1395 H   0  0  0  0  0  0  0  0  0  0  0  0
   -0.3434   -1.6378   -0.4523 H   0  0  0  0  0  0  0  0  0  0  0  0
    0.5866   -1.8556    2.3719 H   0  0  0  0  0  0  0  0  0  0  0  0
    1.2876   -3.3099    0.2961 H   0  0  0  0  0  0  0  0  0  0  0  0
    2.3660   -1.9544   -0.1524 H   0  0  0  0  0  0  0  0  0  0  0  0
    3.4805   -3.7759    1.1616 H   0  0  0  0  0  0  0  0  0  0  0  0
    2.3664   -3.5184    2.5336 H   0  0  0  0  0  0  0  0  0  0  0  0
    4.6424   -2.4784    2.8120 H   0  0  0  0  0  0  0  0  0  0  0  0
    4.3556   -1.4189    1.3992 H   0  0  0  0  0  0  0  0  0  0  0  0
    3.9452   -0.5429    3.8686 H   0  0  0  0  0  0  0  0  0  0  0  0
    2.4116   -1.4349    3.8188 H   0  0  0  0  0  0  0  0  0  0  0  0
    3.4995    1.6798    3.5702 H   0  0  0  0  0  0  0  0  0  0  0  0
    2.3181    2.2770    2.3994 H   0  0  0  0  0  0  0  0  0  0  0  0
    5.7544    0.8616    2.8105 H   0  0  0  0  0  0  0  0  0  0  0  0
    7.5465    1.0960    1.1606 H   0  0  0  0  0  0  0  0  0  0  0  0
    4.7432    2.8431   -1.6231 H   0  0  0  0  0  0  0  0  0  0  0  0
    2.9529    2.5839    0.0237 H   0  0  0  0  0  0  0  0  0  0  0  0
    6.1636    1.5081   -3.0535 H   0  0  0  0  0  0  0  0  0  0  0  0
    7.9699    1.7635   -4.7058 H   0  0  0  0  0  0  0  0  0  0  0  0
   10.2217    2.5125   -3.9933 H   0  0  0  0  0  0  0  0  0  0  0  0
   10.6622    3.0214   -1.6088 H   0  0  0  0  0  0  0  0  0  0  0  0
    8.8685    2.7996    0.0622 H   0  0  0  0  0  0  0  0  0  0  0  0
  1  2  1  0
  2  3  2  0
  2  4  1  0
  4  5  1  0
  5  6  1  0
  6  7  1  0
  7  8  2  0
  8  9  1  0
  9 10  2  0
 10 11  1  0
 11 12  2  0
 10 13  1  0
 13 14  1  0
 13 15  1  0
 13 16  1  0
 16 17  1  0
 16 18  1  0
 16 19  2  0
  5 20  1  0
 20 21  2  0
 20 22  1  0
 22 23  1  0
 23 24  1  0
 24 25  1  0
 25 26  1  0
 26 27  1  0
 27 28  1  0
 28 29  1  0
 29 30  1  0
 30 31  2  0
 31 32  1  0
 32 33  2  0
 33 34  1  0
 34 35  2  0
 33 36  1  0
 36 37  2  0
 37 38  1  0
 38 39  2  0
 39 40  1  0
 40 41  2  0
 28 42  1  0
 42 43  2  0
 12  7  1  0
 42 23  1  0
 35 30  1  0
 41 36  1  0
  1 44  1  0
  1 45  1  0
  1 46  1  0
  4 47  1  0
  5 48  1  6
  6 49  1  0
  6 50  1  0
  8 51  1  0
  9 52  1  0
 11 53  1  0
 12 54  1  0
 17 55  1  0
 18 56  1  0
 22 57  1  0
 23 58  1  1
 24 59  1  0
 24 60  1  0
 25 61  1  0
 25 62  1  0
 26 63  1  0
 26 64  1  0
 27 65  1  0
 27 66  1  0
 29 67  1  0
 29 68  1  0
 31 69  1  0
 32 70  1  0
 34 71  1  0
 35 72  1  0
 37 73  1  0
 38 74  1  0
 39 75  1  0
 40 76  1  0
 41 77  1  0
M  END
$$$$
