
     RDKit          3D

 26 28  0  0  0  0  0  0  0  0999 V2000
    3.0928    2.8308   -0.0803 F   0  0  0  0  0  0  0  0  0  0  0  0
    2.5535    1.5899    0.0060 C   0  0  0  0  0  0  0  0  0  0  0  0
    3.3854    0.4682    0.0260 C   0  0  0  0  0  0  0  0  0  0  0  0
    2.8319   -0.8120    0.0953 C   0  0  0  0  0  0  0  0  0  0  0  0
    1.4439   -0.9776    0.1496 C   0  0  0  0  0  0  0  0  0  0  0  0
    0.9110   -2.2706    0.1872 O   0  0  0  0  0  0  0  0  0  0  0  0
   -0.4788   -2.5227   -0.0023 C   0  0  0  0  0  0  0  0  0  0  0  0
   -1.3089   -1.4552    0.7107 C   0  0  0  0  0  0  0  0  0  0  0  0
   -0.9149   -0.0395    0.2312 C   0  0  1  0  0  0  0  0  0  0  0  0
   -1.4959    0.2317   -1.0858 N   0  0  0  0  0  0  0  0  0  0  0  0
   -2.4107    1.3109   -0.9538 C   0  0  0  0  0  0  0  0  0  0  0  0
   -3.0707    1.7817   -1.9166 O   0  0  0  0  0  0  0  0  0  0  0  0
   -2.5006    1.8062    0.3669 N   0  0  0  0  0  0  0  0  0  0  0  0
   -1.5909    0.9975    1.0979 C   0  0  0  0  0  0  0  0  0  0  0  0
   -1.3783    1.1508    2.3302 O   0  0  0  0  0  0  0  0  0  0  0  0
    0.5951    0.1508    0.1765 C   0  0  0  0  0  0  0  0  0  0  0  0
    1.1658    1.4349    0.0721 C   0  0  0  0  0  0  0  0  0  0  0  0
    4.4599    0.5895   -0.0233 H   0  0  0  0  0  0  0  0  0  0  0  0
    3.4810   -1.6784    0.0933 H   0  0  0  0  0  0  0  0  0  0  0  0
   -0.7264   -3.5264    0.4024 H   0  0  0  0  0  0  0  0  0  0  0  0
   -0.7080   -2.5191   -1.0893 H   0  0  0  0  0  0  0  0  0  0  0  0
   -2.3902   -1.6398    0.5263 H   0  0  0  0  0  0  0  0  0  0  0  0
   -1.1272   -1.5471    1.8047 H   0  0  0  0  0  0  0  0  0  0  0  0
   -1.2707   -0.2665   -1.9757 H   0  0  0  0  0  0  0  0  0  0  0  0
   -3.0857    2.5956    0.7194 H   0  0  0  0  0  0  0  0  0  0  0  0
    0.5376    2.3162    0.0439 H   0  0  0  0  0  0  0  0  0  0  0  0
  1  2  1  0
  2  3  2  0
  3  4  1  0
  4  5  2  0
  5  6  1  0
  6  7  1  0
  7  8  1  0
  8  9  1  0
  9 10  1  6
 10 11  1  0
 11 12  2  0
 11 13  1  0
 13 14  1  0
 14 15  2  0
  9 16  1  0
 16 17  2  0
 17  2  1  0
 16  5  1  0
 14  9  1  0
  3 18  1  0
  4 19  1  0
  7 20  1  0
  7 21  1  0
  8 22  1  0
  8 23  1  0
 10 24  1  0
 13 25  1  0
 17 26  1  0
M  END
$$$$
