
     RDKit          3D

197197  0  0  0  0  0  0  0  0999 V2000
    1.9063    6.5004    3.6282 C   0  0  0  0  0  0  0  0  0  0  0  0
    1.4405    5.5631    2.5126 C   0  0  0  0  0  0  0  0  0  0  0  0
    1.5099    4.0797    2.9316 C   0  0  2  0  0  0  0  0  0  0  0  0
    1.6451    3.2350    1.7412 N   0  0  0  0  0  0  0  0  0  0  0  0
    2.6003    2.1644    1.6831 C   0  0  0  0  0  0  0  0  0  0  0  0
    2.8849    1.5414    2.7426 O   0  0  0  0  0  0  0  0  0  0  0  0
    3.2741    1.7449    0.3853 C   0  0  2  0  0  0  0  0  0  0  0  0
    4.8296    1.7272    0.5619 C   0  0  2  0  0  0  0  0  0  0  0  0
    5.3234    3.0165    0.8183 O   0  0  0  0  0  0  0  0  0  0  0  0
    5.6196    1.0254   -0.5868 C   0  0  2  0  0  0  0  0  0  0  0  0
    7.0061    0.5561   -0.1098 C   0  0  0  0  0  0  0  0  0  0  0  0
    5.7263    1.8140   -1.9177 C   0  0  0  0  0  0  0  0  0  0  0  0
    6.5390    3.0793   -1.8460 C   0  0  0  0  0  0  0  0  0  0  0  0
    6.5981    3.9037   -2.8937 C   0  0  0  0  0  0  0  0  0  0  0  0
    7.3817    5.1478   -2.8373 C   0  0  0  0  0  0  0  0  0  0  0  0
    7.4341    5.9751   -3.8770 C   0  0  0  0  0  0  0  0  0  0  0  0
    2.8107    2.5489   -0.7707 N   0  0  0  0  0  0  0  0  0  0  0  0
    3.0612    3.9982   -0.8443 C   0  0  0  0  0  0  0  0  0  0  0  0
    1.9671    1.9678   -1.7973 C   0  0  0  0  0  0  0  0  0  0  0  0
    1.1076    2.6994   -2.3591 O   0  0  0  0  0  0  0  0  0  0  0  0
    2.0996    0.5074   -2.2376 C   0  0  2  0  0  0  0  0  0  0  0  0
    1.8680    0.2746   -3.7640 C   0  0  0  0  0  0  0  0  0  0  0  0
    0.4011    0.4159   -4.2079 C   0  0  0  0  0  0  0  0  0  0  0  0
    2.7892    1.1460   -4.6308 C   0  0  0  0  0  0  0  0  0  0  0  0
    1.2743   -0.4233   -1.4333 N   0  0  0  0  0  0  0  0  0  0  0  0
    0.0417   -0.0051   -0.7589 C   0  0  0  0  0  0  0  0  0  0  0  0
    1.5469   -1.8377   -1.4838 C   0  0  0  0  0  0  0  0  0  0  0  0
    0.7348   -2.5948   -2.0820 O   0  0  0  0  0  0  0  0  0  0  0  0
    2.7482   -2.4296   -0.7736 C   0  0  2  0  0  0  0  0  0  0  0  0
    3.3885   -3.6252   -1.5306 C   0  0  0  0  0  0  0  0  0  0  0  0
    3.8966   -3.3105   -2.9590 C   0  0  0  0  0  0  0  0  0  0  0  0
    4.3099   -4.6122   -3.6596 C   0  0  0  0  0  0  0  0  0  0  0  0
    5.0790   -2.3305   -2.9557 C   0  0  0  0  0  0  0  0  0  0  0  0
    2.3898   -2.8282    0.6097 N   0  0  0  0  0  0  0  0  0  0  0  0
    2.8876   -2.0301    1.7390 C   0  0  0  0  0  0  0  0  0  0  0  0
    1.5497   -3.9855    0.8668 C   0  0  0  0  0  0  0  0  0  0  0  0
    0.7384   -4.3679   -0.0164 O   0  0  0  0  0  0  0  0  0  0  0  0
    1.6894   -4.8238    2.1278 C   0  0  2  0  0  0  0  0  0  0  0  0
    2.6428   -6.0243    1.8919 C   0  0  0  0  0  0  0  0  0  0  0  0
    4.1456   -5.6497    1.9429 C   0  0  0  0  0  0  0  0  0  0  0  0
    4.6433   -5.4910    3.3884 C   0  0  0  0  0  0  0  0  0  0  0  0
    4.9848   -6.7135    1.2226 C   0  0  0  0  0  0  0  0  0  0  0  0
    0.3611   -5.2674    2.6308 N   0  0  0  0  0  0  0  0  0  0  0  0
   -0.0653   -4.8284    3.9677 C   0  0  0  0  0  0  0  0  0  0  0  0
   -0.4665   -6.2108    1.8939 C   0  0  0  0  0  0  0  0  0  0  0  0
    0.0761   -7.0533    1.1302 O   0  0  0  0  0  0  0  0  0  0  0  0
   -1.9823   -6.2345    1.9798 C   0  0  1  0  0  0  0  0  0  0  0  0
   -2.4807   -6.9642    3.2322 C   0  0  0  0  0  0  0  0  0  0  0  0
   -2.5402   -4.8830    1.8914 N   0  0  0  0  0  0  0  0  0  0  0  0
   -2.4387   -4.1061    0.6892 C   0  0  0  0  0  0  0  0  0  0  0  0
   -2.0289   -4.6451   -0.3745 O   0  0  0  0  0  0  0  0  0  0  0  0
   -2.7655   -2.6380    0.6918 C   0  0  2  0  0  0  0  0  0  0  0  0
   -1.7770   -1.8870    1.5874 C   0  0  0  0  0  0  0  0  0  0  0  0
   -4.1335   -2.4185    1.1706 N   0  0  0  0  0  0  0  0  0  0  0  0
   -5.3026   -2.1823    0.3620 C   0  0  0  0  0  0  0  0  0  0  0  0
   -6.4073   -2.0333    0.9515 O   0  0  0  0  0  0  0  0  0  0  0  0
   -5.3019   -2.1274   -1.1601 C   0  0  2  0  0  0  0  0  0  0  0  0
   -5.0502   -3.5256   -1.7887 C   0  0  0  0  0  0  0  0  0  0  0  0
   -5.9261   -4.6690   -1.2166 C   0  0  0  0  0  0  0  0  0  0  0  0
   -5.4604   -6.0166   -1.7831 C   0  0  0  0  0  0  0  0  0  0  0  0
   -7.4157   -4.4596   -1.5266 C   0  0  0  0  0  0  0  0  0  0  0  0
   -4.3864   -1.0765   -1.6723 N   0  0  0  0  0  0  0  0  0  0  0  0
   -3.5785   -1.2638   -2.8856 C   0  0  0  0  0  0  0  0  0  0  0  0
   -4.3282    0.2147   -1.0392 C   0  0  0  0  0  0  0  0  0  0  0  0
   -3.2116    0.6320   -0.6301 O   0  0  0  0  0  0  0  0  0  0  0  0
   -5.5848    1.0381   -0.8066 C   0  0  1  0  0  0  0  0  0  0  0  0
   -5.3020    2.3320   -0.1572 N   0  0  0  0  0  0  0  0  0  0  0  0
   -4.2594    3.2516   -0.5343 C   0  0  0  0  0  0  0  0  0  0  0  0
   -3.7196    3.1776   -1.6703 O   0  0  0  0  0  0  0  0  0  0  0  0
   -3.7639    4.2803    0.4509 C   0  0  2  0  0  0  0  0  0  0  0  0
   -4.1802    5.7064   -0.0063 C   0  0  0  0  0  0  0  0  0  0  0  0
   -3.9763    6.8531    1.0162 C   0  0  0  0  0  0  0  0  0  0  0  0
   -2.5019    7.1460    1.3091 C   0  0  0  0  0  0  0  0  0  0  0  0
   -4.7665    6.6433    2.3146 C   0  0  0  0  0  0  0  0  0  0  0  0
   -2.3077    4.1008    0.6465 N   0  0  0  0  0  0  0  0  0  0  0  0
   -1.3353    4.4673   -0.3939 C   0  0  0  0  0  0  0  0  0  0  0  0
   -1.8609    3.1610    1.6435 C   0  0  0  0  0  0  0  0  0  0  0  0
   -1.2393    2.1239    1.2897 O   0  0  0  0  0  0  0  0  0  0  0  0
   -2.0751    3.4049    3.1073 C   0  0  0  0  0  0  0  0  0  0  0  0
   -0.9763    4.2028    3.6678 N   0  0  0  0  0  0  0  0  0  0  0  0
   -1.2851    5.3489    4.5306 C   0  0  0  0  0  0  0  0  0  0  0  0
    0.3327    3.6093    3.7621 C   0  0  0  0  0  0  0  0  0  0  0  0
    0.4925    2.6111    4.5150 O   0  0  0  0  0  0  0  0  0  0  0  0
   -6.4809    1.1905   -2.0729 C   0  0  0  0  0  0  0  0  0  0  0  0
   -7.8196    1.8552   -1.7216 C   0  0  0  0  0  0  0  0  0  0  0  0
   -5.8175    1.9282   -3.2432 C   0  0  0  0  0  0  0  0  0  0  0  0
    2.9983    6.3800    3.7928 H   0  0  0  0  0  0  0  0  0  0  0  0
    1.7069    7.5533    3.3377 H   0  0  0  0  0  0  0  0  0  0  0  0
    1.3821    6.2844    4.5808 H   0  0  0  0  0  0  0  0  0  0  0  0
    0.4187    5.8356    2.1796 H   0  0  0  0  0  0  0  0  0  0  0  0
    2.1106    5.7311    1.6419 H   0  0  0  0  0  0  0  0  0  0  0  0
    2.4264    3.9577    3.5533 H   0  0  0  0  0  0  0  0  0  0  0  0
    1.0308    3.4172    0.9189 H   0  0  0  0  0  0  0  0  0  0  0  0
    2.9634    0.6968    0.2358 H   0  0  0  0  0  0  0  0  0  0  0  0
    5.0054    1.0975    1.4682 H   0  0  0  0  0  0  0  0  0  0  0  0
    6.1153    2.9208    1.4092 H   0  0  0  0  0  0  0  0  0  0  0  0
    5.0731    0.0915   -0.8177 H   0  0  0  0  0  0  0  0  0  0  0  0
    7.5404    0.0346   -0.9326 H   0  0  0  0  0  0  0  0  0  0  0  0
    7.6281    1.4063    0.2366 H   0  0  0  0  0  0  0  0  0  0  0  0
    6.8982   -0.1630    0.7302 H   0  0  0  0  0  0  0  0  0  0  0  0
    4.7189    2.0556   -2.2970 H   0  0  0  0  0  0  0  0  0  0  0  0
    6.1862    1.1522   -2.6841 H   0  0  0  0  0  0  0  0  0  0  0  0
    7.0845    3.3299   -0.9460 H   0  0  0  0  0  0  0  0  0  0  0  0
    6.0548    3.6575   -3.8000 H   0  0  0  0  0  0  0  0  0  0  0  0
    7.9273    5.4027   -1.9362 H   0  0  0  0  0  0  0  0  0  0  0  0
    8.0156    6.8857   -3.8146 H   0  0  0  0  0  0  0  0  0  0  0  0
    6.9022    5.7571   -4.7950 H   0  0  0  0  0  0  0  0  0  0  0  0
    3.5326    4.3871    0.0775 H   0  0  0  0  0  0  0  0  0  0  0  0
    2.1059    4.5509   -0.9670 H   0  0  0  0  0  0  0  0  0  0  0  0
    3.7161    4.2238   -1.7107 H   0  0  0  0  0  0  0  0  0  0  0  0
    3.1568    0.2444   -2.0628 H   0  0  0  0  0  0  0  0  0  0  0  0
    2.1538   -0.7762   -3.9793 H   0  0  0  0  0  0  0  0  0  0  0  0
    0.2974    0.0796   -5.2616 H   0  0  0  0  0  0  0  0  0  0  0  0
   -0.2626   -0.2235   -3.5907 H   0  0  0  0  0  0  0  0  0  0  0  0
    0.0483    1.4644   -4.1543 H   0  0  0  0  0  0  0  0  0  0  0  0
    2.5521    2.2239   -4.5148 H   0  0  0  0  0  0  0  0  0  0  0  0
    3.8504    0.9765   -4.3510 H   0  0  0  0  0  0  0  0  0  0  0  0
    2.6727    0.8747   -5.7017 H   0  0  0  0  0  0  0  0  0  0  0  0
   -0.2931    0.9987   -1.0817 H   0  0  0  0  0  0  0  0  0  0  0  0
    0.2131    0.0048    0.3368 H   0  0  0  0  0  0  0  0  0  0  0  0
   -0.7838   -0.7071   -0.9980 H   0  0  0  0  0  0  0  0  0  0  0  0
    3.5232   -1.6427   -0.7295 H   0  0  0  0  0  0  0  0  0  0  0  0
    4.2383   -4.0112   -0.9264 H   0  0  0  0  0  0  0  0  0  0  0  0
    2.6497   -4.4505   -1.6023 H   0  0  0  0  0  0  0  0  0  0  0  0
    3.0708   -2.8687   -3.5535 H   0  0  0  0  0  0  0  0  0  0  0  0
    5.1415   -5.1052   -3.1111 H   0  0  0  0  0  0  0  0  0  0  0  0
    4.6395   -4.4033   -4.6999 H   0  0  0  0  0  0  0  0  0  0  0  0
    3.4490   -5.3127   -3.7111 H   0  0  0  0  0  0  0  0  0  0  0  0
    5.5132   -2.2430   -3.9745 H   0  0  0  0  0  0  0  0  0  0  0  0
    5.8733   -2.6697   -2.2569 H   0  0  0  0  0  0  0  0  0  0  0  0
    4.7437   -1.3190   -2.6651 H   0  0  0  0  0  0  0  0  0  0  0  0
    2.0373   -1.7105    2.3779 H   0  0  0  0  0  0  0  0  0  0  0  0
    3.4258   -1.1255    1.4044 H   0  0  0  0  0  0  0  0  0  0  0  0
    3.6130   -2.6149    2.3382 H   0  0  0  0  0  0  0  0  0  0  0  0
    2.1546   -4.1963    2.9044 H   0  0  0  0  0  0  0  0  0  0  0  0
    2.4401   -6.8153    2.6477 H   0  0  0  0  0  0  0  0  0  0  0  0
    2.4237   -6.4638    0.8945 H   0  0  0  0  0  0  0  0  0  0  0  0
    4.3078   -4.6913    1.4084 H   0  0  0  0  0  0  0  0  0  0  0  0
    4.5054   -6.4360    3.9565 H   0  0  0  0  0  0  0  0  0  0  0  0
    4.1019   -4.6783    3.9129 H   0  0  0  0  0  0  0  0  0  0  0  0
    5.7227   -5.2285    3.3933 H   0  0  0  0  0  0  0  0  0  0  0  0
    6.0619   -6.4429    1.2557 H   0  0  0  0  0  0  0  0  0  0  0  0
    4.8483   -7.7083    1.6988 H   0  0  0  0  0  0  0  0  0  0  0  0
    4.6847   -6.7806    0.1548 H   0  0  0  0  0  0  0  0  0  0  0  0
    0.6651   -4.1404    4.4408 H   0  0  0  0  0  0  0  0  0  0  0  0
   -0.1636   -5.7091    4.6352 H   0  0  0  0  0  0  0  0  0  0  0  0
   -1.0242   -4.2804    3.9121 H   0  0  0  0  0  0  0  0  0  0  0  0
   -2.3676   -6.8176    1.1125 H   0  0  0  0  0  0  0  0  0  0  0  0
   -3.5711   -7.1546    3.1390 H   0  0  0  0  0  0  0  0  0  0  0  0
   -1.9652   -7.9425    3.3401 H   0  0  0  0  0  0  0  0  0  0  0  0
   -2.3229   -6.3654    4.1502 H   0  0  0  0  0  0  0  0  0  0  0  0
   -3.0360   -4.4736    2.7150 H   0  0  0  0  0  0  0  0  0  0  0  0
   -2.6414   -2.2404   -0.3309 H   0  0  0  0  0  0  0  0  0  0  0  0
   -1.8742   -2.2092    2.6457 H   0  0  0  0  0  0  0  0  0  0  0  0
   -1.9745   -0.7956    1.5333 H   0  0  0  0  0  0  0  0  0  0  0  0
   -0.7349   -2.0786    1.2552 H   0  0  0  0  0  0  0  0  0  0  0  0
   -4.2958   -2.4958    2.2009 H   0  0  0  0  0  0  0  0  0  0  0  0
   -6.3244   -1.8342   -1.4748 H   0  0  0  0  0  0  0  0  0  0  0  0
   -3.9877   -3.7951   -1.6535 H   0  0  0  0  0  0  0  0  0  0  0  0
   -5.2290   -3.4665   -2.8845 H   0  0  0  0  0  0  0  0  0  0  0  0
   -5.7993   -4.7210   -0.1135 H   0  0  0  0  0  0  0  0  0  0  0  0
   -6.0637   -6.8447   -1.3534 H   0  0  0  0  0  0  0  0  0  0  0  0
   -4.3966   -6.1975   -1.5182 H   0  0  0  0  0  0  0  0  0  0  0  0
   -5.5633   -6.0338   -2.8896 H   0  0  0  0  0  0  0  0  0  0  0  0
   -7.8029   -3.5616   -1.0034 H   0  0  0  0  0  0  0  0  0  0  0  0
   -8.0082   -5.3297   -1.1715 H   0  0  0  0  0  0  0  0  0  0  0  0
   -7.5765   -4.3408   -2.6196 H   0  0  0  0  0  0  0  0  0  0  0  0
   -4.2413   -1.4793   -3.7492 H   0  0  0  0  0  0  0  0  0  0  0  0
   -2.8539   -2.0920   -2.7482 H   0  0  0  0  0  0  0  0  0  0  0  0
   -2.9951   -0.3489   -3.1280 H   0  0  0  0  0  0  0  0  0  0  0  0
   -6.1865    0.4479   -0.0828 H   0  0  0  0  0  0  0  0  0  0  0  0
   -5.8260    2.5332    0.7246 H   0  0  0  0  0  0  0  0  0  0  0  0
   -4.2865    4.0877    1.4084 H   0  0  0  0  0  0  0  0  0  0  0  0
   -3.6960    5.9833   -0.9637 H   0  0  0  0  0  0  0  0  0  0  0  0
   -5.2680    5.6768   -0.2416 H   0  0  0  0  0  0  0  0  0  0  0  0
   -4.3900    7.7699    0.5391 H   0  0  0  0  0  0  0  0  0  0  0  0
   -1.9412    7.2909    0.3617 H   0  0  0  0  0  0  0  0  0  0  0  0
   -2.0422    6.3228    1.8873 H   0  0  0  0  0  0  0  0  0  0  0  0
   -2.4128    8.0777    1.9074 H   0  0  0  0  0  0  0  0  0  0  0  0
   -4.7610    7.5788    2.9139 H   0  0  0  0  0  0  0  0  0  0  0  0
   -5.8226    6.3848    2.0877 H   0  0  0  0  0  0  0  0  0  0  0  0
   -4.3210    5.8392    2.9323 H   0  0  0  0  0  0  0  0  0  0  0  0
   -1.8001    5.0004   -1.2426 H   0  0  0  0  0  0  0  0  0  0  0  0
   -0.8579    3.5565   -0.8090 H   0  0  0  0  0  0  0  0  0  0  0  0
   -0.5513    5.1199    0.0403 H   0  0  0  0  0  0  0  0  0  0  0  0
   -3.0512    3.8999    3.2661 H   0  0  0  0  0  0  0  0  0  0  0  0
   -2.1302    2.4294    3.6382 H   0  0  0  0  0  0  0  0  0  0  0  0
   -0.7981    5.2260    5.5216 H   0  0  0  0  0  0  0  0  0  0  0  0
   -0.9322    6.2881    4.0626 H   0  0  0  0  0  0  0  0  0  0  0  0
   -2.3767    5.4515    4.7039 H   0  0  0  0  0  0  0  0  0  0  0  0
   -6.7247    0.1731   -2.4436 H   0  0  0  0  0  0  0  0  0  0  0  0
   -8.4834    1.8743   -2.6124 H   0  0  0  0  0  0  0  0  0  0  0  0
   -8.3354    1.2827   -0.9214 H   0  0  0  0  0  0  0  0  0  0  0  0
   -7.6634    2.8985   -1.3729 H   0  0  0  0  0  0  0  0  0  0  0  0
   -6.4211    1.7828   -4.1645 H   0  0  0  0  0  0  0  0  0  0  0  0
   -5.7643    3.0193   -3.0487 H   0  0  0  0  0  0  0  0  0  0  0  0
   -4.8022    1.5270   -3.4411 H   0  0  0  0  0  0  0  0  0  0  0  0
  1  2  1  0
  2  3  1  0
  3  4  1  0
  4  5  1  0
  5  6  2  0
  5  7  1  0
  7  8  1  0
  8  9  1  0
  8 10  1  0
 10 11  1  0
 10 12  1  0
 12 13  1  0
 13 14  2  0
 14 15  1  0
 15 16  2  0
  7 17  1  0
 17 18  1  0
 17 19  1  0
 19 20  2  0
 19 21  1  0
 21 22  1  0
 22 23  1  0
 22 24  1  0
 21 25  1  0
 25 26  1  0
 25 27  1  0
 27 28  2  0
 27 29  1  0
 29 30  1  0
 30 31  1  0
 31 32  1  0
 31 33  1  0
 29 34  1  0
 34 35  1  0
 34 36  1  0
 36 37  2  0
 36 38  1  0
 38 39  1  0
 39 40  1  0
 40 41  1  0
 40 42  1  0
 38 43  1  0
 43 44  1  0
 43 45  1  0
 45 46  2  0
 45 47  1  0
 47 48  1  0
 47 49  1  0
 49 50  1  0
 50 51  2  0
 50 52  1  0
 52 53  1  0
 52 54  1  0
 54 55  1  0
 55 56  2  0
 55 57  1  0
 57 58  1  0
 58 59  1  0
 59 60  1  0
 59 61  1  0
 57 62  1  0
 62 63  1  0
 62 64  1  0
 64 65  2  0
 64 66  1  0
 66 67  1  0
 67 68  1  0
 68 69  2  0
 68 70  1  0
 70 71  1  0
 71 72  1  0
 72 73  1  0
 72 74  1  0
 70 75  1  0
 75 76  1  0
 75 77  1  0
 77 78  2  0
 77 79  1  0
 79 80  1  0
 80 81  1  0
 80 82  1  0
 82 83  2  0
 66 84  1  0
 84 85  1  0
 84 86  1  0
 82  3  1  0
  1 87  1  0
  1 88  1  0
  1 89  1  0
  2 90  1  0
  2 91  1  0
  3 92  1  1
  4 93  1  0
  7 94  1  6
  8 95  1  1
  9 96  1  0
 10 97  1  6
 11 98  1  0
 11 99  1  0
 11100  1  0
 12101  1  0
 12102  1  0
 13103  1  0
 14104  1  0
 15105  1  0
 16106  1  0
 16107  1  0
 18108  1  0
 18109  1  0
 18110  1  0
 21111  1  6
 22112  1  0
 23113  1  0
 23114  1  0
 23115  1  0
 24116  1  0
 24117  1  0
 24118  1  0
 26119  1  0
 26120  1  0
 26121  1  0
 29122  1  1
 30123  1  0
 30124  1  0
 31125  1  0
 32126  1  0
 32127  1  0
 32128  1  0
 33129  1  0
 33130  1  0
 33131  1  0
 35132  1  0
 35133  1  0
 35134  1  0
 38135  1  1
 39136  1  0
 39137  1  0
 40138  1  0
 41139  1  0
 41140  1  0
 41141  1  0
 42142  1  0
 42143  1  0
 42144  1  0
 44145  1  0
 44146  1  0
 44147  1  0
 47148  1  6
 48149  1  0
 48150  1  0
 48151  1  0
 49152  1  0
 52153  1  6
 53154  1  0
 53155  1  0
 53156  1  0
 54157  1  0
 57158  1  6
 58159  1  0
 58160  1  0
 59161  1  0
 60162  1  0
 60163  1  0
 60164  1  0
 61165  1  0
 61166  1  0
 61167  1  0
 63168  1  0
 63169  1  0
 63170  1  0
 66171  1  1
 67172  1  0
 70173  1  1
 71174  1  0
 71175  1  0
 72176  1  0
 73177  1  0
 73178  1  0
 73179  1  0
 74180  1  0
 74181  1  0
 74182  1  0
 76183  1  0
 76184  1  0
 76185  1  0
 79186  1  0
 79187  1  0
 81188  1  0
 81189  1  0
 81190  1  0
 84191  1  0
 85192  1  0
 85193  1  0
 85194  1  0
 86195  1  0
 86196  1  0
 86197  1  0
M  END
$$$$
