
     RDKit          3D

 58 61  0  0  0  0  0  0  0  0999 V2000
   -2.1509   -3.6194    0.4627 C   0  0  0  0  0  0  0  0  0  0  0  0
   -3.3822   -3.1050   -0.2220 C   0  0  0  0  0  0  0  0  0  0  0  0
   -4.2564   -3.9375   -0.5873 O   0  0  0  0  0  0  0  0  0  0  0  0
   -3.5937   -1.6539   -0.4746 C   0  0  0  0  0  0  0  0  0  0  0  0
   -4.7084   -1.2241   -1.2189 C   0  0  0  0  0  0  0  0  0  0  0  0
   -4.9104    0.1329   -1.4797 C   0  0  0  0  0  0  0  0  0  0  0  0
   -4.0003    1.0798   -1.0078 C   0  0  0  0  0  0  0  0  0  0  0  0
   -4.1767    2.8075   -1.4653 S   0  0  0  0  0  0  0  0  0  0  0  0
   -3.8410    3.3929    0.1979 C   0  0  0  0  0  0  0  0  0  0  0  0
   -2.7477    2.8616    0.9082 C   0  0  0  0  0  0  0  0  0  0  0  0
   -2.4470    3.3722    2.1841 C   0  0  0  0  0  0  0  0  0  0  0  0
   -3.2217    4.3994    2.7320 C   0  0  0  0  0  0  0  0  0  0  0  0
   -4.3141    4.9092    2.0249 C   0  0  0  0  0  0  0  0  0  0  0  0
   -4.6280    4.4028    0.7610 C   0  0  0  0  0  0  0  0  0  0  0  0
   -2.0731    1.6929    0.3917 N   0  0  0  0  0  0  0  0  0  0  0  0
   -0.6358    1.4801    0.6311 C   0  0  0  0  0  0  0  0  0  0  0  0
    0.0954    1.1179   -0.6720 C   0  0  0  0  0  0  0  0  0  0  0  0
    1.5746    0.7954   -0.4254 C   0  0  0  0  0  0  0  0  0  0  0  0
    1.7160   -0.3766    0.4709 N   0  0  0  0  0  0  0  0  0  0  0  0
    1.6396   -1.6746   -0.2398 C   0  0  0  0  0  0  0  0  0  0  0  0
    2.9458   -2.0273   -0.9733 C   0  0  0  0  0  0  0  0  0  0  0  0
    4.0821   -1.9526   -0.0392 N   0  0  0  0  0  0  0  0  0  0  0  0
    5.3492   -2.4655   -0.6091 C   0  0  0  0  0  0  0  0  0  0  0  0
    5.9892   -1.5733   -1.6942 C   0  0  0  0  0  0  0  0  0  0  0  0
    6.6403   -0.4687   -1.1261 O   0  0  0  0  0  0  0  0  0  0  0  0
    4.1944   -0.6111    0.5534 C   0  0  0  0  0  0  0  0  0  0  0  0
    2.9135   -0.2992    1.3339 C   0  0  0  0  0  0  0  0  0  0  0  0
   -2.8984    0.6809   -0.2323 C   0  0  0  0  0  0  0  0  0  0  0  0
   -2.7010   -0.6871    0.0291 C   0  0  0  0  0  0  0  0  0  0  0  0
   -2.1273   -3.2623    1.5135 H   0  0  0  0  0  0  0  0  0  0  0  0
   -2.1431   -4.7302    0.4679 H   0  0  0  0  0  0  0  0  0  0  0  0
   -1.2446   -3.2667   -0.0729 H   0  0  0  0  0  0  0  0  0  0  0  0
   -5.4195   -1.9388   -1.6139 H   0  0  0  0  0  0  0  0  0  0  0  0
   -5.7586    0.4435   -2.0764 H   0  0  0  0  0  0  0  0  0  0  0  0
   -1.6442    2.9503    2.7744 H   0  0  0  0  0  0  0  0  0  0  0  0
   -2.9886    4.7854    3.7160 H   0  0  0  0  0  0  0  0  0  0  0  0
   -4.9174    5.6973    2.4565 H   0  0  0  0  0  0  0  0  0  0  0  0
   -5.4676    4.8103    0.2125 H   0  0  0  0  0  0  0  0  0  0  0  0
   -0.1691    2.4081    1.0271 H   0  0  0  0  0  0  0  0  0  0  0  0
   -0.5028    0.6894    1.3989 H   0  0  0  0  0  0  0  0  0  0  0  0
   -0.3912    0.2556   -1.1698 H   0  0  0  0  0  0  0  0  0  0  0  0
    0.0280    1.9803   -1.3704 H   0  0  0  0  0  0  0  0  0  0  0  0
    2.0756    0.6254   -1.4015 H   0  0  0  0  0  0  0  0  0  0  0  0
    2.0464    1.7011    0.0171 H   0  0  0  0  0  0  0  0  0  0  0  0
    1.4203   -2.4734    0.5020 H   0  0  0  0  0  0  0  0  0  0  0  0
    0.7985   -1.6817   -0.9646 H   0  0  0  0  0  0  0  0  0  0  0  0
    3.0871   -1.3470   -1.8377 H   0  0  0  0  0  0  0  0  0  0  0  0
    2.8496   -3.0618   -1.3696 H   0  0  0  0  0  0  0  0  0  0  0  0
    6.0800   -2.6209    0.2142 H   0  0  0  0  0  0  0  0  0  0  0  0
    5.1706   -3.4735   -1.0435 H   0  0  0  0  0  0  0  0  0  0  0  0
    6.7232   -2.1787   -2.2735 H   0  0  0  0  0  0  0  0  0  0  0  0
    5.2341   -1.2150   -2.4203 H   0  0  0  0  0  0  0  0  0  0  0  0
    7.4759   -0.8106   -0.7132 H   0  0  0  0  0  0  0  0  0  0  0  0
    4.3434    0.1628   -0.2311 H   0  0  0  0  0  0  0  0  0  0  0  0
    5.0548   -0.5763    1.2571 H   0  0  0  0  0  0  0  0  0  0  0  0
    2.9938    0.7019    1.8112 H   0  0  0  0  0  0  0  0  0  0  0  0
    2.8086   -1.0330    2.1630 H   0  0  0  0  0  0  0  0  0  0  0  0
   -1.8689   -0.9912    0.6465 H   0  0  0  0  0  0  0  0  0  0  0  0
  1  2  1  0
  2  3  2  0
  2  4  1  0
  4  5  2  0
  5  6  1  0
  6  7  2  0
  7  8  1  0
  8  9  1  0
  9 10  2  0
 10 11  1  0
 11 12  2  0
 12 13  1  0
 13 14  2  0
 10 15  1  0
 15 16  1  0
 16 17  1  0
 17 18  1  0
 18 19  1  0
 19 20  1  0
 20 21  1  0
 21 22  1  0
 22 23  1  0
 23 24  1  0
 24 25  1  0
 22 26  1  0
 26 27  1  0
 15 28  1  0
 28 29  2  0
 29  4  1  0
 28  7  1  0
 14  9  1  0
 27 19  1  0
  1 30  1  0
  1 31  1  0
  1 32  1  0
  5 33  1  0
  6 34  1  0
 11 35  1  0
 12 36  1  0
 13 37  1  0
 14 38  1  0
 16 39  1  0
 16 40  1  0
 17 41  1  0
 17 42  1  0
 18 43  1  0
 18 44  1  0
 20 45  1  0
 20 46  1  0
 21 47  1  0
 21 48  1  0
 23 49  1  0
 23 50  1  0
 24 51  1  0
 24 52  1  0
 25 53  1  0
 26 54  1  0
 26 55  1  0
 27 56  1  0
 27 57  1  0
 29 58  1  0
M  END
$$$$
