
     RDKit          3D

 59 62  0  0  0  0  0  0  0  0999 V2000
    9.3807   -2.1511    1.0278 F   0  0  0  0  0  0  0  0  0  0  0  0
    8.0597   -1.8952    0.8547 C   0  0  0  0  0  0  0  0  0  0  0  0
    7.3804   -1.0481    1.7388 C   0  0  0  0  0  0  0  0  0  0  0  0
    8.2318   -0.2983    3.0786 Cl  0  0  0  0  0  0  0  0  0  0  0  0
    6.0177   -0.7893    1.5509 C   0  0  0  0  0  0  0  0  0  0  0  0
    5.3204   -1.3861    0.4837 C   0  0  0  0  0  0  0  0  0  0  0  0
    3.9252   -1.1187    0.2589 N   0  0  0  0  0  0  0  0  0  0  0  0
    3.0016   -0.7969    1.3135 C   0  0  0  0  0  0  0  0  0  0  0  0
    3.1846   -1.3424    2.5473 N   0  0  0  0  0  0  0  0  0  0  0  0
    2.3151   -1.1154    3.5634 C   0  0  0  0  0  0  0  0  0  0  0  0
    1.2230   -0.3372    3.3632 N   0  0  0  0  0  0  0  0  0  0  0  0
    0.9813    0.2332    2.1547 C   0  0  0  0  0  0  0  0  0  0  0  0
   -0.1470    1.0390    1.9832 C   0  0  0  0  0  0  0  0  0  0  0  0
   -0.4087    1.6493    0.7423 C   0  0  0  0  0  0  0  0  0  0  0  0
   -1.5406    2.4562    0.5312 O   0  0  0  0  0  0  0  0  0  0  0  0
   -2.6731    2.5502    1.3970 C   0  0  0  0  0  0  0  0  0  0  0  0
   -3.4990    1.2576    1.3741 C   0  0  0  0  0  0  0  0  0  0  0  0
   -3.9739    0.9117   -0.0459 C   0  0  0  0  0  0  0  0  0  0  0  0
   -4.8967   -0.2440   -0.0342 N   0  0  0  0  0  0  0  0  0  0  0  0
   -5.6188   -0.3311   -1.3170 C   0  0  0  0  0  0  0  0  0  0  0  0
   -6.6225   -1.5043   -1.2869 C   0  0  0  0  0  0  0  0  0  0  0  0
   -6.4031   -2.3827   -0.1968 O   0  0  0  0  0  0  0  0  0  0  0  0
   -5.0375   -2.7364   -0.1372 C   0  0  0  0  0  0  0  0  0  0  0  0
   -4.1772   -1.5122    0.2315 C   0  0  0  0  0  0  0  0  0  0  0  0
    0.4835    1.4520   -0.3286 C   0  0  0  0  0  0  0  0  0  0  0  0
    0.2387    2.1000   -1.5905 N   0  0  0  0  0  0  0  0  0  0  0  0
    0.5318    1.4889   -2.8591 C   0  0  0  0  0  0  0  0  0  0  0  0
    0.6728    0.2387   -2.9369 O   0  0  0  0  0  0  0  0  0  0  0  0
    0.6212    2.2836   -4.0988 C   0  0  0  0  0  0  0  0  0  0  0  0
    0.7356    3.6107   -4.1105 C   0  0  0  0  0  0  0  0  0  0  0  0
    1.6276    0.6544   -0.1476 C   0  0  0  0  0  0  0  0  0  0  0  0
    1.8740    0.0220    1.0835 C   0  0  0  0  0  0  0  0  0  0  0  0
    6.0170   -2.2174   -0.4072 C   0  0  0  0  0  0  0  0  0  0  0  0
    7.3777   -2.4750   -0.2182 C   0  0  0  0  0  0  0  0  0  0  0  0
    5.5128   -0.1098    2.2252 H   0  0  0  0  0  0  0  0  0  0  0  0
    3.5430   -1.2947   -0.6974 H   0  0  0  0  0  0  0  0  0  0  0  0
    2.4898   -1.5613    4.5327 H   0  0  0  0  0  0  0  0  0  0  0  0
   -0.8077    1.1881    2.8257 H   0  0  0  0  0  0  0  0  0  0  0  0
   -2.3553    2.7945    2.4323 H   0  0  0  0  0  0  0  0  0  0  0  0
   -3.3100    3.3913    1.0497 H   0  0  0  0  0  0  0  0  0  0  0  0
   -2.8868    0.4286    1.7831 H   0  0  0  0  0  0  0  0  0  0  0  0
   -4.3838    1.3880    2.0342 H   0  0  0  0  0  0  0  0  0  0  0  0
   -4.4992    1.8077   -0.4476 H   0  0  0  0  0  0  0  0  0  0  0  0
   -3.1002    0.7157   -0.7085 H   0  0  0  0  0  0  0  0  0  0  0  0
   -4.8990   -0.4803   -2.1547 H   0  0  0  0  0  0  0  0  0  0  0  0
   -6.1785    0.6112   -1.5097 H   0  0  0  0  0  0  0  0  0  0  0  0
   -6.5863   -2.0682   -2.2456 H   0  0  0  0  0  0  0  0  0  0  0  0
   -7.6510   -1.0955   -1.1917 H   0  0  0  0  0  0  0  0  0  0  0  0
   -4.9066   -3.5261    0.6329 H   0  0  0  0  0  0  0  0  0  0  0  0
   -4.6998   -3.1736   -1.1056 H   0  0  0  0  0  0  0  0  0  0  0  0
   -3.9417   -1.5712    1.3155 H   0  0  0  0  0  0  0  0  0  0  0  0
   -3.2193   -1.5641   -0.3343 H   0  0  0  0  0  0  0  0  0  0  0  0
   -0.2860    3.0029   -1.5870 H   0  0  0  0  0  0  0  0  0  0  0  0
    0.6312    1.7578   -5.0459 H   0  0  0  0  0  0  0  0  0  0  0  0
    0.8114    4.1341   -5.0548 H   0  0  0  0  0  0  0  0  0  0  0  0
    0.7807    4.1919   -3.1999 H   0  0  0  0  0  0  0  0  0  0  0  0
    2.3328    0.5641   -0.9616 H   0  0  0  0  0  0  0  0  0  0  0  0
    5.5021   -2.6728   -1.2439 H   0  0  0  0  0  0  0  0  0  0  0  0
    7.9037   -3.1244   -0.9063 H   0  0  0  0  0  0  0  0  0  0  0  0
  1  2  1  0
  2  3  2  0
  3  4  1  0
  3  5  1  0
  5  6  2  0
  6  7  1  0
  7  8  1  0
  8  9  2  0
  9 10  1  0
 10 11  2  0
 11 12  1  0
 12 13  2  0
 13 14  1  0
 14 15  1  0
 15 16  1  0
 16 17  1  0
 17 18  1  0
 18 19  1  0
 19 20  1  0
 20 21  1  0
 21 22  1  0
 22 23  1  0
 23 24  1  0
 14 25  2  0
 25 26  1  0
 26 27  1  0
 27 28  2  0
 27 29  1  0
 29 30  2  3
 25 31  1  0
 31 32  2  0
  6 33  1  0
 33 34  2  0
 34  2  1  0
 32  8  1  0
 32 12  1  0
 24 19  1  0
  5 35  1  0
  7 36  1  0
 10 37  1  0
 13 38  1  0
 16 39  1  0
 16 40  1  0
 17 41  1  0
 17 42  1  0
 18 43  1  0
 18 44  1  0
 20 45  1  0
 20 46  1  0
 21 47  1  0
 21 48  1  0
 23 49  1  0
 23 50  1  0
 24 51  1  0
 24 52  1  0
 26 53  1  0
 29 54  1  0
 30 55  1  0
 30 56  1  0
 31 57  1  0
 33 58  1  0
 34 59  1  0
M  END
$$$$
