
     RDKit          3D

108111  0  0  0  0  0  0  0  0999 V2000
  -14.3023    2.0987   -1.3851 N   0  0  0  0  0  0  0  0  0  0  0  0
  -13.3051    2.5217   -0.4553 C   0  0  0  0  0  0  0  0  0  0  0  0
  -11.9712    2.1552   -0.5940 C   0  0  0  0  0  0  0  0  0  0  0  0
  -11.3897    1.3743   -1.5239 N   0  0  0  0  0  0  0  0  0  0  0  0
  -10.0876    1.3524   -1.1255 C   0  0  0  0  0  0  0  0  0  0  0  0
   -9.8528    2.0904   -0.0084 N   0  0  0  0  0  0  0  0  0  0  0  0
   -8.6074    2.2042    0.7534 C   0  0  2  0  0  0  0  0  0  0  0  0
   -7.5121    2.2856   -0.1369 O   0  0  0  0  0  0  0  0  0  0  0  0
   -6.5729    1.3214    0.2746 C   0  0  2  0  0  0  0  0  0  0  0  0
   -5.7828    0.7861   -0.9236 C   0  0  0  0  0  0  0  0  0  0  0  0
   -6.6653    0.3927   -1.9486 O   0  0  0  0  0  0  0  0  0  0  0  0
   -5.7889   -0.5051   -3.1037 P   0  0  0  0  0  5  0  0  0  0  0  0
   -5.4701   -2.0460   -2.4680 O   0  0  0  0  0  0  0  0  0  0  0  0
   -6.6570   -0.6702   -4.3298 O   0  0  0  0  0  0  0  0  0  0  0  0
   -4.3822    0.3533   -3.5610 O   0  0  0  0  0  0  0  0  0  0  0  0
   -3.0190   -0.5915   -3.1792 P   0  0  0  0  0  5  0  0  0  0  0  0
   -1.6263    0.3050   -3.5282 O   0  0  0  0  0  0  0  0  0  0  0  0
   -3.0212   -1.8522   -4.0175 O   0  0  0  0  0  0  0  0  0  0  0  0
   -3.0430   -0.9734   -1.5172 O   0  0  0  0  0  0  0  0  0  0  0  0
   -1.9308   -1.7809   -1.2100 C   0  0  0  0  0  0  0  0  0  0  0  0
   -1.9577   -2.1590    0.2979 C   0  0  0  0  0  0  0  0  0  0  0  0
   -3.2576   -2.9398    0.6036 C   0  0  0  0  0  0  0  0  0  0  0  0
   -1.9666   -0.8638    1.1463 C   0  0  0  0  0  0  0  0  0  0  0  0
   -0.7257   -3.0443    0.7041 C   0  0  1  0  0  0  0  0  0  0  0  0
   -0.7809   -4.3295    0.1292 O   0  0  0  0  0  0  0  0  0  0  0  0
    0.6104   -2.3862    0.4266 C   0  0  0  0  0  0  0  0  0  0  0  0
    1.1647   -2.5334   -0.6973 O   0  0  0  0  0  0  0  0  0  0  0  0
    1.2293   -1.5654    1.4282 N   0  0  0  0  0  0  0  0  0  0  0  0
    2.4074   -0.7476    1.1505 C   0  0  0  0  0  0  0  0  0  0  0  0
    2.0218    0.4713    0.3089 C   0  0  0  0  0  0  0  0  0  0  0  0
    3.2317    1.3026    0.0121 C   0  0  0  0  0  0  0  0  0  0  0  0
    3.4826    2.3126    0.7240 O   0  0  0  0  0  0  0  0  0  0  0  0
    4.1195    0.9223   -1.0482 N   0  0  0  0  0  0  0  0  0  0  0  0
    5.3929    1.5975   -1.2918 C   0  0  0  0  0  0  0  0  0  0  0  0
    6.4204    1.2441   -0.2122 C   0  0  0  0  0  0  0  0  0  0  0  0
    6.6799   -0.5627   -0.0825 S   0  0  0  0  0  0  0  0  0  0  0  0
    7.7404   -0.6778   -1.5321 C   0  0  0  0  0  0  0  0  0  0  0  0
    7.2159   -0.9636   -2.6403 O   0  0  0  0  0  0  0  0  0  0  0  0
    9.1991   -0.4640   -1.4674 C   0  0  0  0  0  0  0  0  0  0  0  0
    9.8481   -0.1924   -0.3259 C   0  0  0  0  0  0  0  0  0  0  0  0
   11.3142    0.0212   -0.2451 C   0  0  0  0  0  0  0  0  0  0  0  0
   11.9521   -0.1537    0.9909 C   0  0  0  0  0  0  0  0  0  0  0  0
   13.3290    0.0459    1.1192 C   0  0  0  0  0  0  0  0  0  0  0  0
   14.1085    0.4392    0.0128 C   0  0  0  0  0  0  0  0  0  0  0  0
   13.4591    0.6317   -1.2235 C   0  0  0  0  0  0  0  0  0  0  0  0
   12.0818    0.4300   -1.3505 C   0  0  0  0  0  0  0  0  0  0  0  0
   15.5397    0.6467    0.1446 N   0  0  0  0  0  0  0  0  0  0  0  0
   16.2694    1.4630   -0.8336 C   0  0  0  0  0  0  0  0  0  0  0  0
   16.2820    0.0425    1.2581 C   0  0  0  0  0  0  0  0  0  0  0  0
   -7.3195    0.2166    1.0062 C   0  0  1  0  0  0  0  0  0  0  0  0
   -6.4591   -0.4116    1.9385 O   0  0  0  0  0  0  0  0  0  0  0  0
   -6.9548   -2.0265    2.1797 P   0  0  0  0  0  5  0  0  0  0  0  0
   -5.9037   -2.7559    3.2872 O   0  0  0  0  0  0  0  0  0  0  0  0
   -6.8955   -2.8739    0.7145 O   0  0  0  0  0  0  0  0  0  0  0  0
   -8.3627   -2.0605    2.7319 O   0  0  0  0  0  0  0  0  0  0  0  0
   -8.4329    0.9881    1.6741 C   0  0  1  0  0  0  0  0  0  0  0  0
   -8.0465    1.4016    2.9608 O   0  0  0  0  0  0  0  0  0  0  0  0
  -11.0590    2.5734    0.3127 C   0  0  0  0  0  0  0  0  0  0  0  0
  -11.3868    3.3417    1.3797 N   0  0  0  0  0  0  0  0  0  0  0  0
  -12.6953    3.7110    1.5245 C   0  0  0  0  0  0  0  0  0  0  0  0
  -13.6387    3.3034    0.6151 N   0  0  0  0  0  0  0  0  0  0  0  0
  -14.0547    1.5000   -2.2042 H   0  0  0  0  0  0  0  0  0  0  0  0
  -15.2973    2.3869   -1.2543 H   0  0  0  0  0  0  0  0  0  0  0  0
   -9.3243    0.7851   -1.6404 H   0  0  0  0  0  0  0  0  0  0  0  0
   -8.6353    3.1421    1.3522 H   0  0  0  0  0  0  0  0  0  0  0  0
   -5.8546    1.8097    0.9737 H   0  0  0  0  0  0  0  0  0  0  0  0
   -5.1659   -0.0643   -0.5571 H   0  0  0  0  0  0  0  0  0  0  0  0
   -5.1126    1.5934   -1.2941 H   0  0  0  0  0  0  0  0  0  0  0  0
   -6.3371   -2.3524   -2.1006 H   0  0  0  0  0  0  0  0  0  0  0  0
   -1.7210    0.5579   -4.4811 H   0  0  0  0  0  0  0  0  0  0  0  0
   -0.9923   -1.2265   -1.4334 H   0  0  0  0  0  0  0  0  0  0  0  0
   -1.9568   -2.7100   -1.8204 H   0  0  0  0  0  0  0  0  0  0  0  0
   -3.2872   -3.2504    1.6704 H   0  0  0  0  0  0  0  0  0  0  0  0
   -3.3324   -3.8500   -0.0289 H   0  0  0  0  0  0  0  0  0  0  0  0
   -4.1543   -2.3147    0.4057 H   0  0  0  0  0  0  0  0  0  0  0  0
   -1.9174   -1.1023    2.2305 H   0  0  0  0  0  0  0  0  0  0  0  0
   -2.8939   -0.2765    0.9711 H   0  0  0  0  0  0  0  0  0  0  0  0
   -1.1039   -0.2141    0.8885 H   0  0  0  0  0  0  0  0  0  0  0  0
   -0.7807   -3.2046    1.8033 H   0  0  0  0  0  0  0  0  0  0  0  0
   -0.6497   -4.2436   -0.8493 H   0  0  0  0  0  0  0  0  0  0  0  0
    0.8284   -1.5466    2.3930 H   0  0  0  0  0  0  0  0  0  0  0  0
    3.1743   -1.3596    0.6265 H   0  0  0  0  0  0  0  0  0  0  0  0
    2.8447   -0.4020    2.1130 H   0  0  0  0  0  0  0  0  0  0  0  0
    1.5592    0.1467   -0.6476 H   0  0  0  0  0  0  0  0  0  0  0  0
    1.2730    1.0811    0.8602 H   0  0  0  0  0  0  0  0  0  0  0  0
    3.8442    0.1381   -1.6819 H   0  0  0  0  0  0  0  0  0  0  0  0
    5.2359    2.6974   -1.3152 H   0  0  0  0  0  0  0  0  0  0  0  0
    5.7845    1.2983   -2.2869 H   0  0  0  0  0  0  0  0  0  0  0  0
    6.0664    1.6140    0.7724 H   0  0  0  0  0  0  0  0  0  0  0  0
    7.3827    1.7547   -0.4303 H   0  0  0  0  0  0  0  0  0  0  0  0
    9.7462   -0.5599   -2.3952 H   0  0  0  0  0  0  0  0  0  0  0  0
    9.2959   -0.1636    0.6047 H   0  0  0  0  0  0  0  0  0  0  0  0
   11.3828   -0.4537    1.8627 H   0  0  0  0  0  0  0  0  0  0  0  0
   13.7745   -0.0991    2.0934 H   0  0  0  0  0  0  0  0  0  0  0  0
   14.0105    0.9356   -2.1023 H   0  0  0  0  0  0  0  0  0  0  0  0
   11.6254    0.6192   -2.3121 H   0  0  0  0  0  0  0  0  0  0  0  0
   15.7416    2.4279   -0.9891 H   0  0  0  0  0  0  0  0  0  0  0  0
   17.2974    1.6981   -0.4854 H   0  0  0  0  0  0  0  0  0  0  0  0
   16.3462    0.9179   -1.7975 H   0  0  0  0  0  0  0  0  0  0  0  0
   16.0316    0.5639    2.2055 H   0  0  0  0  0  0  0  0  0  0  0  0
   16.0248   -1.0347    1.3433 H   0  0  0  0  0  0  0  0  0  0  0  0
   17.3796    0.1116    1.1039 H   0  0  0  0  0  0  0  0  0  0  0  0
   -7.7576   -0.4802    0.2504 H   0  0  0  0  0  0  0  0  0  0  0  0
   -6.2085   -3.6964    3.3461 H   0  0  0  0  0  0  0  0  0  0  0  0
   -7.1670   -3.7983    0.9435 H   0  0  0  0  0  0  0  0  0  0  0  0
   -9.3538    0.3608    1.7323 H   0  0  0  0  0  0  0  0  0  0  0  0
   -8.8710    1.7202    3.4128 H   0  0  0  0  0  0  0  0  0  0  0  0
  -12.9893    4.3266    2.3633 H   0  0  0  0  0  0  0  0  0  0  0  0
  1  2  1  0
  2  3  2  0
  3  4  1  0
  4  5  2  0
  5  6  1  0
  6  7  1  0
  7  8  1  0
  8  9  1  0
  9 10  1  0
 10 11  1  0
 11 12  1  0
 12 13  1  0
 12 14  2  0
 12 15  1  0
 15 16  1  0
 16 17  1  0
 16 18  2  0
 16 19  1  0
 19 20  1  0
 20 21  1  0
 21 22  1  0
 21 23  1  0
 21 24  1  0
 24 25  1  0
 24 26  1  0
 26 27  2  0
 26 28  1  0
 28 29  1  0
 29 30  1  0
 30 31  1  0
 31 32  2  0
 31 33  1  0
 33 34  1  0
 34 35  1  0
 35 36  1  0
 36 37  1  0
 37 38  2  0
 37 39  1  0
 39 40  2  0
 40 41  1  0
 41 42  2  0
 42 43  1  0
 43 44  2  0
 44 45  1  0
 45 46  2  0
 44 47  1  0
 47 48  1  0
 47 49  1  0
  9 50  1  0
 50 51  1  0
 51 52  1  0
 52 53  1  0
 52 54  1  0
 52 55  2  0
 50 56  1  0
 56 57  1  0
  6 58  1  0
 58 59  2  0
 59 60  1  0
 60 61  2  0
 61  2  1  0
 58  3  1  0
 56  7  1  0
 46 41  1  0
  1 62  1  0
  1 63  1  0
  5 64  1  0
  7 65  1  1
  9 66  1  1
 10 67  1  0
 10 68  1  0
 13 69  1  0
 17 70  1  0
 20 71  1  0
 20 72  1  0
 22 73  1  0
 22 74  1  0
 22 75  1  0
 23 76  1  0
 23 77  1  0
 23 78  1  0
 24 79  1  1
 25 80  1  0
 28 81  1  0
 29 82  1  0
 29 83  1  0
 30 84  1  0
 30 85  1  0
 33 86  1  0
 34 87  1  0
 34 88  1  0
 35 89  1  0
 35 90  1  0
 39 91  1  0
 40 92  1  0
 42 93  1  0
 43 94  1  0
 45 95  1  0
 46 96  1  0
 48 97  1  0
 48 98  1  0
 48 99  1  0
 49100  1  0
 49101  1  0
 49102  1  0
 50103  1  6
 53104  1  0
 54105  1  0
 56106  1  1
 57107  1  0
 60108  1  0
M  END
$$$$
