
     RDKit          3D

 47 50  0  0  0  0  0  0  0  0999 V2000
    6.1123   -0.1567   -0.5088 C   0  0  0  0  0  0  0  0  0  0  0  0
    4.7057   -0.2830   -0.0991 N   0  0  0  0  0  0  0  0  0  0  0  0
    3.8300   -0.3635   -1.2887 C   0  0  0  0  0  0  0  0  0  0  0  0
    2.3432   -0.1716   -0.9247 C   0  0  0  0  0  0  0  0  0  0  0  0
    2.1421   -0.3565    0.5232 N   0  0  0  0  0  0  0  0  0  0  0  0
    0.7218   -0.4742    0.9253 C   0  0  0  0  0  0  0  0  0  0  0  0
   -0.1891    0.6084    0.3698 C   0  0  0  0  0  0  0  0  0  0  0  0
    0.1869    1.8109    0.4149 O   0  0  0  0  0  0  0  0  0  0  0  0
   -1.5318    0.3055   -0.0685 N   0  0  0  0  0  0  0  0  0  0  0  0
   -1.9141   -1.0011   -0.5098 C   0  0  0  0  0  0  0  0  0  0  0  0
   -1.2843   -1.5625   -1.6318 C   0  0  0  0  0  0  0  0  0  0  0  0
   -1.6337   -2.8390   -2.0735 C   0  0  0  0  0  0  0  0  0  0  0  0
   -2.6200   -3.5619   -1.4031 C   0  0  0  0  0  0  0  0  0  0  0  0
   -3.2660   -3.0047   -0.2968 C   0  0  0  0  0  0  0  0  0  0  0  0
   -2.9351   -1.7119    0.1512 C   0  0  0  0  0  0  0  0  0  0  0  0
   -3.6227   -1.1639    1.3451 C   0  0  0  0  0  0  0  0  0  0  0  0
   -3.9647   -1.9623    2.2593 O   0  0  0  0  0  0  0  0  0  0  0  0
   -3.9751    0.2241    1.4871 N   0  0  0  0  0  0  0  0  0  0  0  0
   -3.7144    1.2716    0.5371 C   0  0  0  0  0  0  0  0  0  0  0  0
   -2.5084    1.3423   -0.1833 C   0  0  0  0  0  0  0  0  0  0  0  0
   -2.2652    2.4063   -0.9986 N   0  0  0  0  0  0  0  0  0  0  0  0
   -3.1563    3.4212   -1.1435 C   0  0  0  0  0  0  0  0  0  0  0  0
   -4.3590    3.3978   -0.4392 C   0  0  0  0  0  0  0  0  0  0  0  0
   -4.6312    2.3252    0.4102 C   0  0  0  0  0  0  0  0  0  0  0  0
    2.9065    0.6163    1.3332 C   0  0  0  0  0  0  0  0  0  0  0  0
    4.3145    0.8517    0.7552 C   0  0  0  0  0  0  0  0  0  0  0  0
    6.3972   -1.0070   -1.1654 H   0  0  0  0  0  0  0  0  0  0  0  0
    6.2911    0.7978   -1.0527 H   0  0  0  0  0  0  0  0  0  0  0  0
    6.7727   -0.1931    0.3840 H   0  0  0  0  0  0  0  0  0  0  0  0
    3.9578   -1.3653   -1.7544 H   0  0  0  0  0  0  0  0  0  0  0  0
    4.1138    0.4007   -2.0486 H   0  0  0  0  0  0  0  0  0  0  0  0
    2.0215    0.8483   -1.2321 H   0  0  0  0  0  0  0  0  0  0  0  0
    1.7391   -0.9117   -1.4916 H   0  0  0  0  0  0  0  0  0  0  0  0
    0.6395   -0.4602    2.0338 H   0  0  0  0  0  0  0  0  0  0  0  0
    0.3664   -1.4780    0.6182 H   0  0  0  0  0  0  0  0  0  0  0  0
   -0.5298   -1.0025   -2.1676 H   0  0  0  0  0  0  0  0  0  0  0  0
   -1.1409   -3.2670   -2.9369 H   0  0  0  0  0  0  0  0  0  0  0  0
   -2.8888   -4.5535   -1.7438 H   0  0  0  0  0  0  0  0  0  0  0  0
   -4.0348   -3.5807    0.2035 H   0  0  0  0  0  0  0  0  0  0  0  0
   -4.5899    0.4636    2.2983 H   0  0  0  0  0  0  0  0  0  0  0  0
   -2.9278    4.2485   -1.8019 H   0  0  0  0  0  0  0  0  0  0  0  0
   -5.0696    4.2076   -0.5432 H   0  0  0  0  0  0  0  0  0  0  0  0
   -5.5571    2.3137    0.9715 H   0  0  0  0  0  0  0  0  0  0  0  0
    3.0095    0.2110    2.3636 H   0  0  0  0  0  0  0  0  0  0  0  0
    2.3836    1.5914    1.4088 H   0  0  0  0  0  0  0  0  0  0  0  0
    5.0314    0.9689    1.5986 H   0  0  0  0  0  0  0  0  0  0  0  0
    4.3234    1.7990    0.1678 H   0  0  0  0  0  0  0  0  0  0  0  0
  1  2  1  0
  2  3  1  0
  3  4  1  0
  4  5  1  0
  5  6  1  0
  6  7  1  0
  7  8  2  0
  7  9  1  0
  9 10  1  0
 10 11  2  0
 11 12  1  0
 12 13  2  0
 13 14  1  0
 14 15  2  0
 15 16  1  0
 16 17  2  0
 16 18  1  0
 18 19  1  0
 19 20  2  0
 20 21  1  0
 21 22  2  0
 22 23  1  0
 23 24  2  0
  5 25  1  0
 25 26  1  0
 26  2  1  0
 20  9  1  0
 15 10  1  0
 24 19  1  0
  1 27  1  0
  1 28  1  0
  1 29  1  0
  3 30  1  0
  3 31  1  0
  4 32  1  0
  4 33  1  0
  6 34  1  0
  6 35  1  0
 11 36  1  0
 12 37  1  0
 13 38  1  0
 14 39  1  0
 18 40  1  0
 22 41  1  0
 23 42  1  0
 24 43  1  0
 25 44  1  0
 25 45  1  0
 26 46  1  0
 26 47  1  0
M  END
$$$$
