
     RDKit          3D

 30 32  0  0  0  0  0  0  0  0999 V2000
   -2.8578   -0.4422    0.4986 C   0  0  2  0  0  0  0  0  0  0  0  0
   -3.3655   -1.2265   -0.7212 C   0  0  0  0  0  0  0  0  0  0  0  0
   -4.6900   -0.8777   -1.0233 O   0  0  0  0  0  0  0  0  0  0  0  0
   -2.7804    1.0581    0.2250 C   0  0  0  0  0  0  0  0  0  0  0  0
   -1.3253    1.2853   -0.0374 C   0  0  0  0  0  0  0  0  0  0  0  0
   -0.6685    0.1595    0.7396 C   0  0  1  0  0  0  0  0  0  0  0  0
   -1.5741   -0.9168    0.8476 O   0  0  0  0  0  0  0  0  0  0  0  0
    0.5600   -0.2787    0.0762 N   0  0  0  0  0  0  0  0  0  0  0  0
    0.6903   -1.1721   -0.9398 C   0  0  0  0  0  0  0  0  0  0  0  0
    1.9661   -1.2790   -1.4045 N   0  0  0  0  0  0  0  0  0  0  0  0
    2.6359   -0.3978   -0.6376 C   0  0  0  0  0  0  0  0  0  0  0  0
    1.7978    0.2036    0.2369 C   0  0  0  0  0  0  0  0  0  0  0  0
    2.2078    1.1611    1.1036 N   0  0  0  0  0  0  0  0  0  0  0  0
    3.5284    1.5149    1.0882 C   0  0  0  0  0  0  0  0  0  0  0  0
    4.1110    2.7432    2.1901 Cl  0  0  0  0  0  0  0  0  0  0  0  0
    4.3995    0.9161    0.2132 N   0  0  0  0  0  0  0  0  0  0  0  0
    3.9801   -0.0443   -0.6643 C   0  0  0  0  0  0  0  0  0  0  0  0
    4.8995   -0.6491   -1.5737 N   0  0  0  0  0  0  0  0  0  0  0  0
   -3.5472   -0.6272    1.3517 H   0  0  0  0  0  0  0  0  0  0  0  0
   -3.2955   -2.3202   -0.5217 H   0  0  0  0  0  0  0  0  0  0  0  0
   -2.7260   -1.0063   -1.6028 H   0  0  0  0  0  0  0  0  0  0  0  0
   -5.2624   -1.3192   -0.3427 H   0  0  0  0  0  0  0  0  0  0  0  0
   -3.0869    1.6210    1.1348 H   0  0  0  0  0  0  0  0  0  0  0  0
   -3.4058    1.3891   -0.6331 H   0  0  0  0  0  0  0  0  0  0  0  0
   -0.9906    2.2836    0.3196 H   0  0  0  0  0  0  0  0  0  0  0  0
   -1.1234    1.1869   -1.1277 H   0  0  0  0  0  0  0  0  0  0  0  0
   -0.4287    0.5129    1.7678 H   0  0  0  0  0  0  0  0  0  0  0  0
   -0.1372   -1.7338   -1.3535 H   0  0  0  0  0  0  0  0  0  0  0  0
    5.9033   -0.3619   -1.5730 H   0  0  0  0  0  0  0  0  0  0  0  0
    4.5856   -1.3824   -2.2477 H   0  0  0  0  0  0  0  0  0  0  0  0
  1  2  1  0
  2  3  1  0
  1  4  1  0
  4  5  1  0
  5  6  1  0
  6  7  1  0
  6  8  1  0
  8  9  1  0
  9 10  2  0
 10 11  1  0
 11 12  2  0
 12 13  1  0
 13 14  2  0
 14 15  1  0
 14 16  1  0
 16 17  2  0
 17 18  1  0
  7  1  1  0
 12  8  1  0
 17 11  1  0
  1 19  1  1
  2 20  1  0
  2 21  1  0
  3 22  1  0
  4 23  1  0
  4 24  1  0
  5 25  1  0
  5 26  1  0
  6 27  1  1
  9 28  1  0
 18 29  1  0
 18 30  1  0
M  END
$$$$
