
     RDKit          3D

 49 52  0  0  0  0  0  0  0  0999 V2000
    1.6782   -0.4678   -0.7244 C   0  0  2  0  0  0  0  0  0  0  0  0
    2.5179   -1.6762   -1.1249 C   0  0  0  0  0  0  0  0  0  0  0  0
    3.9710   -1.1786   -1.0113 C   0  0  0  0  0  0  0  0  0  0  0  0
    3.9027    0.2086   -0.3219 C   0  0  2  0  0  0  0  0  0  0  0  0
    4.9679    0.4546    0.5676 O   0  0  0  0  0  0  0  0  0  0  0  0
    2.5116    0.2481    0.3466 C   0  0  2  0  0  0  0  0  0  0  0  0
    2.5568   -0.4993    1.7184 C   0  0  0  0  0  0  0  0  0  0  0  0
    1.9265    1.6646    0.5313 C   0  0  0  0  0  0  0  0  0  0  0  0
    0.4295    1.6068    0.9234 C   0  0  0  0  0  0  0  0  0  0  0  0
   -0.4329    0.7427   -0.0586 C   0  0  1  0  0  0  0  0  0  0  0  0
    0.2094   -0.6718   -0.2978 C   0  0  1  0  0  0  0  0  0  0  0  0
   -0.5681   -1.4549   -1.3728 C   0  0  0  0  0  0  0  0  0  0  0  0
   -2.0455   -1.5914   -0.9998 C   0  0  0  0  0  0  0  0  0  0  0  0
   -2.6767   -0.2047   -0.7974 C   0  0  1  0  0  0  0  0  0  0  0  0
   -4.1989   -0.3085   -0.5762 C   0  0  0  0  0  0  0  0  0  0  0  0
   -4.7866    1.0473   -0.3024 C   0  0  0  0  0  0  0  0  0  0  0  0
   -6.0282    1.2220   -0.4197 O   0  0  0  0  0  0  0  0  0  0  0  0
   -3.9320    2.1713    0.1200 C   0  0  0  0  0  0  0  0  0  0  0  0
   -2.6226    2.0079    0.3492 C   0  0  0  0  0  0  0  0  0  0  0  0
   -1.9610    0.6329    0.3215 C   0  0  2  0  0  0  0  0  0  0  0  0
   -2.1547    0.0059    1.7305 C   0  0  0  0  0  0  0  0  0  0  0  0
    1.6474    0.1790   -1.6370 H   0  0  0  0  0  0  0  0  0  0  0  0
    2.3377   -2.5254   -0.4303 H   0  0  0  0  0  0  0  0  0  0  0  0
    2.2871   -1.9994   -2.1634 H   0  0  0  0  0  0  0  0  0  0  0  0
    4.4289   -1.0802   -2.0198 H   0  0  0  0  0  0  0  0  0  0  0  0
    4.5681   -1.9099   -0.4248 H   0  0  0  0  0  0  0  0  0  0  0  0
    3.9466    0.9862   -1.1180 H   0  0  0  0  0  0  0  0  0  0  0  0
    5.1442   -0.3680    1.0925 H   0  0  0  0  0  0  0  0  0  0  0  0
    2.9992   -1.5122    1.6213 H   0  0  0  0  0  0  0  0  0  0  0  0
    1.5619   -0.6204    2.1847 H   0  0  0  0  0  0  0  0  0  0  0  0
    3.1745    0.0729    2.4428 H   0  0  0  0  0  0  0  0  0  0  0  0
    2.4947    2.2112    1.3152 H   0  0  0  0  0  0  0  0  0  0  0  0
    2.0245    2.2472   -0.4116 H   0  0  0  0  0  0  0  0  0  0  0  0
    0.3446    1.2320    1.9607 H   0  0  0  0  0  0  0  0  0  0  0  0
    0.0683    2.6533    0.9354 H   0  0  0  0  0  0  0  0  0  0  0  0
   -0.3946    1.2821   -1.0339 H   0  0  0  0  0  0  0  0  0  0  0  0
    0.1795   -1.2784    0.6275 H   0  0  0  0  0  0  0  0  0  0  0  0
   -0.4808   -0.9441   -2.3576 H   0  0  0  0  0  0  0  0  0  0  0  0
   -0.1399   -2.4749   -1.4789 H   0  0  0  0  0  0  0  0  0  0  0  0
   -2.5684   -2.1192   -1.8272 H   0  0  0  0  0  0  0  0  0  0  0  0
   -2.1542   -2.2154   -0.0874 H   0  0  0  0  0  0  0  0  0  0  0  0
   -2.5464    0.3431   -1.7613 H   0  0  0  0  0  0  0  0  0  0  0  0
   -4.4338   -0.9913    0.2672 H   0  0  0  0  0  0  0  0  0  0  0  0
   -4.6737   -0.7287   -1.4897 H   0  0  0  0  0  0  0  0  0  0  0  0
   -4.3699    3.1566    0.2236 H   0  0  0  0  0  0  0  0  0  0  0  0
   -2.0647    2.8811    0.6508 H   0  0  0  0  0  0  0  0  0  0  0  0
   -3.2294   -0.0964    1.9835 H   0  0  0  0  0  0  0  0  0  0  0  0
   -1.7229    0.6553    2.5186 H   0  0  0  0  0  0  0  0  0  0  0  0
   -1.6928   -0.9958    1.8170 H   0  0  0  0  0  0  0  0  0  0  0  0
  1  2  1  0
  2  3  1  0
  3  4  1  0
  4  5  1  0
  4  6  1  0
  6  7  1  1
  6  8  1  0
  8  9  1  0
  9 10  1  0
 10 11  1  0
 11 12  1  0
 12 13  1  0
 13 14  1  0
 14 15  1  0
 15 16  1  0
 16 17  2  0
 16 18  1  0
 18 19  2  0
 19 20  1  0
 20 21  1  1
  6  1  1  0
 20 10  1  0
 11  1  1  0
 20 14  1  0
  1 22  1  6
  2 23  1  0
  2 24  1  0
  3 25  1  0
  3 26  1  0
  4 27  1  6
  5 28  1  0
  7 29  1  0
  7 30  1  0
  7 31  1  0
  8 32  1  0
  8 33  1  0
  9 34  1  0
  9 35  1  0
 10 36  1  6
 11 37  1  1
 12 38  1  0
 12 39  1  0
 13 40  1  0
 13 41  1  0
 14 42  1  6
 15 43  1  0
 15 44  1  0
 18 45  1  0
 19 46  1  0
 21 47  1  0
 21 48  1  0
 21 49  1  0
M  END
$$$$
