
     RDKit          3D

 48 50  0  0  0  0  0  0  0  0999 V2000
    1.8100    0.7919   -0.7216 C   0  0  2  0  0  0  0  0  0  0  0  0
    0.9660    2.0377   -1.0622 C   0  0  0  0  0  0  0  0  0  0  0  0
   -0.3821    1.6548   -1.6125 C   0  0  0  0  0  0  0  0  0  0  0  0
   -0.5204    1.5503   -2.8615 O   0  0  0  0  0  0  0  0  0  0  0  0
   -1.4924    1.3571   -0.7468 N   0  0  0  0  0  0  0  0  0  0  0  0
   -2.7704    0.8678   -1.2427 C   0  0  0  0  0  0  0  0  0  0  0  0
   -3.7015    0.9333   -0.0338 C   0  0  1  0  0  0  0  0  0  0  0  0
   -4.8651   -0.0799   -0.0569 C   0  0  0  0  0  0  0  0  0  0  0  0
   -4.4461   -1.4938    0.3521 C   0  0  0  0  0  0  0  0  0  0  0  0
   -3.7209   -1.4702    1.6964 C   0  0  0  0  0  0  0  0  0  0  0  0
   -2.4545   -0.6233    1.5923 C   0  0  0  0  0  0  0  0  0  0  0  0
   -2.7667    0.8371    1.1877 C   0  0  1  0  0  0  0  0  0  0  0  0
   -1.4880    1.5276    0.7020 C   0  0  0  0  0  0  0  0  0  0  0  0
    3.0882    1.1966    0.0410 C   0  0  0  0  0  0  0  0  0  0  0  0
    3.8425   -0.0096    0.5424 C   0  0  0  0  0  0  0  0  0  0  0  0
    3.4218   -0.6704    1.7089 C   0  0  0  0  0  0  0  0  0  0  0  0
    4.1000   -1.8077    2.1578 C   0  0  0  0  0  0  0  0  0  0  0  0
    5.1971   -2.2966    1.4433 C   0  0  0  0  0  0  0  0  0  0  0  0
    5.6164   -1.6503    0.2772 C   0  0  0  0  0  0  0  0  0  0  0  0
    4.9411   -0.5125   -0.1752 C   0  0  0  0  0  0  0  0  0  0  0  0
    2.1511    0.0164   -1.9691 C   0  0  0  0  0  0  0  0  0  0  0  0
    1.7250   -1.3016   -2.0997 O   0  0  0  0  0  0  0  0  0  0  0  0
    2.8237    0.5524   -2.8913 O   0  0  0  0  0  0  0  0  0  0  0  0
    1.2080    0.1348   -0.0555 H   0  0  0  0  0  0  0  0  0  0  0  0
    1.5034    2.6710   -1.8024 H   0  0  0  0  0  0  0  0  0  0  0  0
    0.8248    2.6639   -0.1558 H   0  0  0  0  0  0  0  0  0  0  0  0
   -2.6471   -0.1720   -1.6140 H   0  0  0  0  0  0  0  0  0  0  0  0
   -3.1493    1.5189   -2.0605 H   0  0  0  0  0  0  0  0  0  0  0  0
   -4.1540    1.9519   -0.0269 H   0  0  0  0  0  0  0  0  0  0  0  0
   -5.3200   -0.1070   -1.0708 H   0  0  0  0  0  0  0  0  0  0  0  0
   -5.6521    0.2701    0.6471 H   0  0  0  0  0  0  0  0  0  0  0  0
   -3.7904   -1.9400   -0.4269 H   0  0  0  0  0  0  0  0  0  0  0  0
   -5.3521   -2.1317    0.4371 H   0  0  0  0  0  0  0  0  0  0  0  0
   -4.3890   -1.0607    2.4860 H   0  0  0  0  0  0  0  0  0  0  0  0
   -3.4448   -2.5083    1.9814 H   0  0  0  0  0  0  0  0  0  0  0  0
   -1.9346   -0.6266    2.5749 H   0  0  0  0  0  0  0  0  0  0  0  0
   -1.7716   -1.0958    0.8501 H   0  0  0  0  0  0  0  0  0  0  0  0
   -3.2041    1.3774    2.0568 H   0  0  0  0  0  0  0  0  0  0  0  0
   -1.5213    2.6122    0.9432 H   0  0  0  0  0  0  0  0  0  0  0  0
   -0.5793    1.0819    1.1603 H   0  0  0  0  0  0  0  0  0  0  0  0
    2.8149    1.8285    0.9148 H   0  0  0  0  0  0  0  0  0  0  0  0
    3.7409    1.8196   -0.6102 H   0  0  0  0  0  0  0  0  0  0  0  0
    2.5679   -0.3060    2.2667 H   0  0  0  0  0  0  0  0  0  0  0  0
    3.7731   -2.3119    3.0580 H   0  0  0  0  0  0  0  0  0  0  0  0
    5.7202   -3.1779    1.7914 H   0  0  0  0  0  0  0  0  0  0  0  0
    6.4630   -2.0329   -0.2781 H   0  0  0  0  0  0  0  0  0  0  0  0
    5.2715   -0.0267   -1.0849 H   0  0  0  0  0  0  0  0  0  0  0  0
    1.9473   -1.8396   -2.9286 H   0  0  0  0  0  0  0  0  0  0  0  0
  1  2  1  0
  2  3  1  0
  3  4  2  0
  3  5  1  0
  5  6  1  0
  6  7  1  0
  7  8  1  0
  8  9  1  0
  9 10  1  0
 10 11  1  0
 11 12  1  0
 12 13  1  0
  1 14  1  0
 14 15  1  0
 15 16  2  0
 16 17  1  0
 17 18  2  0
 18 19  1  0
 19 20  2  0
  1 21  1  0
 21 22  1  0
 21 23  2  0
 13  5  1  0
 20 15  1  0
 12  7  1  0
  1 24  1  1
  2 25  1  0
  2 26  1  0
  6 27  1  0
  6 28  1  0
  7 29  1  1
  8 30  1  0
  8 31  1  0
  9 32  1  0
  9 33  1  0
 10 34  1  0
 10 35  1  0
 11 36  1  0
 11 37  1  0
 12 38  1  1
 13 39  1  0
 13 40  1  0
 14 41  1  0
 14 42  1  0
 16 43  1  0
 17 44  1  0
 18 45  1  0
 19 46  1  0
 20 47  1  0
 22 48  1  0
M  END
$$$$
