
     RDKit          3D

 31 31  0  0  0  0  0  0  0  0999 V2000
   -0.4370    0.1626   -0.4657 C   0  0  2  0  0  0  0  0  0  0  0  0
   -1.5491   -0.1092    0.5774 C   0  0  0  0  0  0  0  0  0  0  0  0
   -2.9282   -0.4585   -0.0367 C   0  0  0  0  0  0  0  0  0  0  0  0
   -3.5844    0.7451   -0.7291 C   0  0  0  0  0  0  0  0  0  0  0  0
   -3.8634   -0.9973    1.0551 C   0  0  0  0  0  0  0  0  0  0  0  0
    0.8820   -0.0286    0.1452 N   0  0  0  0  0  0  0  0  0  0  0  0
    2.0547   -0.3027   -0.6361 C   0  0  0  0  0  0  0  0  0  0  0  0
    1.9682   -0.4295   -1.8879 O   0  0  0  0  0  0  0  0  0  0  0  0
    3.3651   -0.4364    0.0181 C   0  0  0  0  0  0  0  0  0  0  0  0
    4.5653   -0.6945   -0.6157 C   0  0  0  0  0  0  0  0  0  0  0  0
    5.5125   -0.7331    0.3848 C   0  0  0  0  0  0  0  0  0  0  0  0
    4.8346   -0.4970    1.5636 C   0  0  0  0  0  0  0  0  0  0  0  0
    3.5573   -0.3242    1.3125 O   0  0  0  0  0  0  0  0  0  0  0  0
   -0.5126    1.5569   -1.0222 C   0  0  0  0  0  0  0  0  0  0  0  0
   -0.5515    1.7494   -2.3998 O   0  0  0  0  0  0  0  0  0  0  0  0
   -0.5020    2.5535   -0.2500 O   0  0  0  0  0  0  0  0  0  0  0  0
   -0.5550   -0.5698   -1.2950 H   0  0  0  0  0  0  0  0  0  0  0  0
   -1.6453    0.7472    1.2813 H   0  0  0  0  0  0  0  0  0  0  0  0
   -1.2244   -0.9823    1.1868 H   0  0  0  0  0  0  0  0  0  0  0  0
   -2.7958   -1.2668   -0.7897 H   0  0  0  0  0  0  0  0  0  0  0  0
   -3.5991    1.6284   -0.0551 H   0  0  0  0  0  0  0  0  0  0  0  0
   -3.0432    1.0004   -1.6615 H   0  0  0  0  0  0  0  0  0  0  0  0
   -4.6289    0.5030   -1.0204 H   0  0  0  0  0  0  0  0  0  0  0  0
   -4.8421   -1.2883    0.6169 H   0  0  0  0  0  0  0  0  0  0  0  0
   -4.0349   -0.2273    1.8380 H   0  0  0  0  0  0  0  0  0  0  0  0
   -3.4233   -1.9003    1.5297 H   0  0  0  0  0  0  0  0  0  0  0  0
    0.9903    0.1244    1.1740 H   0  0  0  0  0  0  0  0  0  0  0  0
    4.7330   -0.8374   -1.6752 H   0  0  0  0  0  0  0  0  0  0  0  0
    6.5731   -0.9122    0.2693 H   0  0  0  0  0  0  0  0  0  0  0  0
    5.2740   -0.4573    2.5513 H   0  0  0  0  0  0  0  0  0  0  0  0
   -0.5900    2.6821   -2.7930 H   0  0  0  0  0  0  0  0  0  0  0  0
  1  2  1  0
  2  3  1  0
  3  4  1  0
  3  5  1  0
  1  6  1  0
  6  7  1  0
  7  8  2  0
  7  9  1  0
  9 10  2  0
 10 11  1  0
 11 12  2  0
 12 13  1  0
  1 14  1  0
 14 15  1  0
 14 16  2  0
 13  9  1  0
  1 17  1  6
  2 18  1  0
  2 19  1  0
  3 20  1  0
  4 21  1  0
  4 22  1  0
  4 23  1  0
  5 24  1  0
  5 25  1  0
  5 26  1  0
  6 27  1  0
 10 28  1  0
 11 29  1  0
 12 30  1  0
 15 31  1  0
M  END
$$$$
