
     RDKit          3D

 38 39  0  0  0  0  0  0  0  0999 V2000
   -3.9003    2.1956   -0.2267 C   0  0  0  0  0  0  0  0  0  0  0  0
   -3.2807    2.2216   -1.6237 C   0  0  0  0  0  0  0  0  0  0  0  0
   -2.8215    0.8322   -2.0881 C   0  0  0  0  0  0  0  0  0  0  0  0
   -1.6590    0.3228   -1.2756 C   0  0  0  0  0  0  0  0  0  0  0  0
   -0.3554    0.7905   -1.5430 C   0  0  0  0  0  0  0  0  0  0  0  0
    0.6841    0.3275   -0.7430 C   0  0  0  0  0  0  0  0  0  0  0  0
    0.4766   -0.5603    0.2820 C   0  0  0  0  0  0  0  0  0  0  0  0
    1.6373   -0.8410    0.9039 N   0  0  0  0  0  0  0  0  0  0  0  0
    2.5828   -0.1150    0.2637 C   0  0  0  0  0  0  0  0  0  0  0  0
    4.0403   -0.1738    0.5970 C   0  0  0  0  0  0  0  0  0  0  0  0
    4.6815   -1.3207   -0.1196 C   0  0  0  0  0  0  0  0  0  0  0  0
    5.0923   -1.1831   -1.4797 N   0  0  0  0  0  0  0  0  0  0  0  0
    4.8243   -2.4261    0.4678 O   0  0  0  0  0  0  0  0  0  0  0  0
    2.0292    0.6222   -0.7782 C   0  0  0  0  0  0  0  0  0  0  0  0
   -0.8020   -1.0568    0.5760 C   0  0  0  0  0  0  0  0  0  0  0  0
   -1.0499   -1.9961    1.7250 C   0  0  0  0  0  0  0  0  0  0  0  0
   -1.1950   -1.2247    2.9973 C   0  0  0  0  0  0  0  0  0  0  0  0
   -0.0865   -1.0123    3.8107 O   0  0  0  0  0  0  0  0  0  0  0  0
   -2.3117   -0.7339    3.3135 O   0  0  0  0  0  0  0  0  0  0  0  0
   -1.8765   -0.5901   -0.2130 C   0  0  0  0  0  0  0  0  0  0  0  0
   -4.2909    3.2044    0.0235 H   0  0  0  0  0  0  0  0  0  0  0  0
   -4.7406    1.4702   -0.1889 H   0  0  0  0  0  0  0  0  0  0  0  0
   -3.1393    1.9181    0.5327 H   0  0  0  0  0  0  0  0  0  0  0  0
   -2.4242    2.9304   -1.6363 H   0  0  0  0  0  0  0  0  0  0  0  0
   -4.0422    2.5998   -2.3395 H   0  0  0  0  0  0  0  0  0  0  0  0
   -2.5167    0.8958   -3.1554 H   0  0  0  0  0  0  0  0  0  0  0  0
   -3.6738    0.1192   -2.0428 H   0  0  0  0  0  0  0  0  0  0  0  0
   -0.1644    1.4977   -2.3408 H   0  0  0  0  0  0  0  0  0  0  0  0
    1.7906   -1.4873    1.7095 H   0  0  0  0  0  0  0  0  0  0  0  0
    4.5356    0.7765    0.3028 H   0  0  0  0  0  0  0  0  0  0  0  0
    4.1652   -0.2944    1.6948 H   0  0  0  0  0  0  0  0  0  0  0  0
    5.5260   -1.9883   -1.9834 H   0  0  0  0  0  0  0  0  0  0  0  0
    4.9586   -0.2804   -1.9871 H   0  0  0  0  0  0  0  0  0  0  0  0
    2.5429    1.2785   -1.4687 H   0  0  0  0  0  0  0  0  0  0  0  0
   -1.9725   -2.5902    1.5458 H   0  0  0  0  0  0  0  0  0  0  0  0
   -0.2160   -2.7235    1.8181 H   0  0  0  0  0  0  0  0  0  0  0  0
   -0.1653   -0.4766    4.6667 H   0  0  0  0  0  0  0  0  0  0  0  0
   -2.8830   -0.9284    0.0028 H   0  0  0  0  0  0  0  0  0  0  0  0
  1  2  1  0
  2  3  1  0
  3  4  1  0
  4  5  2  0
  5  6  1  0
  6  7  2  0
  7  8  1  0
  8  9  1  0
  9 10  1  0
 10 11  1  0
 11 12  1  0
 11 13  2  0
  9 14  2  0
  7 15  1  0
 15 16  1  0
 16 17  1  0
 17 18  1  0
 17 19  2  0
 15 20  2  0
 20  4  1  0
 14  6  1  0
  1 21  1  0
  1 22  1  0
  1 23  1  0
  2 24  1  0
  2 25  1  0
  3 26  1  0
  3 27  1  0
  5 28  1  0
  8 29  1  0
 10 30  1  0
 10 31  1  0
 12 32  1  0
 12 33  1  0
 14 34  1  0
 16 35  1  0
 16 36  1  0
 18 37  1  0
 20 38  1  0
M  END
$$$$
