
     RDKit          3D

 18 19  0  0  0  0  0  0  0  0999 V2000
   -2.4908    1.9770    0.3321 O   0  0  0  0  0  0  0  0  0  0  0  0
   -1.4551    1.0561    0.1804 C   0  0  0  0  0  0  0  0  0  0  0  0
   -1.7276   -0.3266   -0.0024 C   0  0  0  0  0  0  0  0  0  0  0  0
   -3.0460   -0.7775   -0.0319 O   0  0  0  0  0  0  0  0  0  0  0  0
   -0.6657   -1.2435   -0.1541 C   0  0  0  0  0  0  0  0  0  0  0  0
    0.6347   -0.7483   -0.1181 C   0  0  0  0  0  0  0  0  0  0  0  0
    1.8454   -1.3955   -0.2365 C   0  0  0  0  0  0  0  0  0  0  0  0
    2.8048   -0.3942   -0.1228 C   0  0  0  0  0  0  0  0  0  0  0  0
    2.2204    0.8126    0.0570 N   0  0  0  0  0  0  0  0  0  0  0  0
    0.8972    0.5829    0.0579 C   0  0  0  0  0  0  0  0  0  0  0  0
   -0.1247    1.5171    0.2110 C   0  0  0  0  0  0  0  0  0  0  0  0
   -3.4643    1.6978    0.3177 H   0  0  0  0  0  0  0  0  0  0  0  0
   -3.2680   -1.7578   -0.1608 H   0  0  0  0  0  0  0  0  0  0  0  0
   -0.8526   -2.3007   -0.2945 H   0  0  0  0  0  0  0  0  0  0  0  0
    2.0155   -2.4535   -0.3857 H   0  0  0  0  0  0  0  0  0  0  0  0
    3.8752   -0.5449   -0.1697 H   0  0  0  0  0  0  0  0  0  0  0  0
    2.7029    1.7317    0.1711 H   0  0  0  0  0  0  0  0  0  0  0  0
    0.0987    2.5674    0.3495 H   0  0  0  0  0  0  0  0  0  0  0  0
  1  2  1  0
  2  3  2  0
  3  4  1  0
  3  5  1  0
  5  6  2  0
  6  7  1  0
  7  8  2  0
  8  9  1  0
  9 10  1  0
 10 11  2  0
 11  2  1  0
 10  6  1  0
  1 12  1  0
  4 13  1  0
  5 14  1  0
  7 15  1  0
  8 16  1  0
  9 17  1  0
 11 18  1  0
M  END
$$$$
