
     RDKit          3D

 28 29  0  0  0  0  0  0  0  0999 V2000
    5.1349    0.2277    0.8912 N   0  0  0  0  0  0  0  0  0  0  0  0
    3.7731   -0.0519    0.5755 C   0  0  0  0  0  0  0  0  0  0  0  0
    3.3581   -1.3333    0.4309 N   0  0  0  0  0  0  0  0  0  0  0  0
    2.0644   -1.6085    0.1291 C   0  0  0  0  0  0  0  0  0  0  0  0
    1.7062   -2.8122    0.0189 O   0  0  0  0  0  0  0  0  0  0  0  0
    1.1659   -0.5880   -0.0474 N   0  0  0  0  0  0  0  0  0  0  0  0
    1.5921    0.7001    0.1264 C   0  0  0  0  0  0  0  0  0  0  0  0
    2.8874    0.9620    0.4290 N   0  0  0  0  0  0  0  0  0  0  0  0
   -0.2543   -0.8639   -0.3439 C   0  0  1  0  0  0  0  0  0  0  0  0
   -1.0770   -0.8857    0.9320 C   0  0  0  0  0  0  0  0  0  0  0  0
   -2.4260   -0.4023    0.4713 C   0  0  2  0  0  0  0  0  0  0  0  0
   -3.2956   -1.4798    0.2122 O   0  0  0  0  0  0  0  0  0  0  0  0
   -2.1106    0.3864   -0.8111 C   0  0  1  0  0  0  0  0  0  0  0  0
   -2.2667    1.9006   -0.6137 C   0  0  0  0  0  0  0  0  0  0  0  0
   -3.6202    2.2395   -0.4612 O   0  0  0  0  0  0  0  0  0  0  0  0
   -0.7832    0.1145   -1.2129 O   0  0  0  0  0  0  0  0  0  0  0  0
    5.4590    1.2134    1.0075 H   0  0  0  0  0  0  0  0  0  0  0  0
    5.8209   -0.5507    1.0089 H   0  0  0  0  0  0  0  0  0  0  0  0
    0.9031    1.5297    0.0305 H   0  0  0  0  0  0  0  0  0  0  0  0
   -0.3591   -1.8461   -0.8583 H   0  0  0  0  0  0  0  0  0  0  0  0
   -1.1171   -1.9032    1.3793 H   0  0  0  0  0  0  0  0  0  0  0  0
   -0.6626   -0.1714    1.6782 H   0  0  0  0  0  0  0  0  0  0  0  0
   -2.8866    0.2302    1.2611 H   0  0  0  0  0  0  0  0  0  0  0  0
   -2.8762   -2.0586   -0.4779 H   0  0  0  0  0  0  0  0  0  0  0  0
   -2.7940    0.0758   -1.6328 H   0  0  0  0  0  0  0  0  0  0  0  0
   -1.8809    2.4219   -1.5157 H   0  0  0  0  0  0  0  0  0  0  0  0
   -1.6580    2.2465    0.2548 H   0  0  0  0  0  0  0  0  0  0  0  0
   -3.7968    2.3070    0.5129 H   0  0  0  0  0  0  0  0  0  0  0  0
  1  2  1  0
  2  3  2  0
  3  4  1  0
  4  5  2  0
  4  6  1  0
  6  7  1  0
  7  8  2  0
  6  9  1  0
  9 10  1  0
 10 11  1  0
 11 12  1  0
 11 13  1  0
 13 14  1  0
 14 15  1  0
 13 16  1  0
  8  2  1  0
 16  9  1  0
  1 17  1  0
  1 18  1  0
  7 19  1  0
  9 20  1  6
 10 21  1  0
 10 22  1  0
 11 23  1  1
 12 24  1  0
 13 25  1  6
 14 26  1  0
 14 27  1  0
 15 28  1  0
M  END
$$$$
