
     RDKit          3D

 35 35  0  0  0  0  0  0  0  0999 V2000
    1.1973   -2.7931    0.5913 O   0  0  0  0  0  0  0  0  0  0  0  0
    1.4704   -1.6911   -0.2365 C   0  0  1  0  0  0  0  0  0  0  0  0
    0.5698   -1.6804   -1.4500 C   0  0  1  0  0  0  0  0  0  0  0  0
    0.2006   -2.9596   -1.9144 O   0  0  0  0  0  0  0  0  0  0  0  0
   -0.6001   -0.8109   -1.0106 C   0  0  1  0  0  0  0  0  0  0  0  0
   -1.5739   -1.5855   -0.3387 O   0  0  0  0  0  0  0  0  0  0  0  0
   -3.0406   -0.7148   -0.2686 P   0  0  0  0  0  5  0  0  0  0  0  0
   -4.1052   -1.5751    0.7318 O   0  0  0  0  0  0  0  0  0  0  0  0
   -3.6207   -0.6154   -1.6636 O   0  0  0  0  0  0  0  0  0  0  0  0
   -2.7497    0.8434    0.3583 O   0  0  0  0  0  0  0  0  0  0  0  0
   -4.2553    1.5720    0.6750 P   0  0  0  0  0  5  0  0  0  0  0  0
   -4.0012    3.2128    0.9984 O   0  0  0  0  0  0  0  0  0  0  0  0
   -5.2947    1.4338   -0.6555 O   0  0  0  0  0  0  0  0  0  0  0  0
   -4.8927    0.9323    1.8882 O   0  0  0  0  0  0  0  0  0  0  0  0
   -0.0785    0.1592   -0.1303 O   0  0  0  0  0  0  0  0  0  0  0  0
    1.0808   -0.3822    0.4751 C   0  0  2  0  0  0  0  0  0  0  0  0
    2.2048    0.6572    0.4135 C   0  0  0  0  0  0  0  0  0  0  0  0
    3.3197    0.1848    1.1334 O   0  0  0  0  0  0  0  0  0  0  0  0
    4.6035    1.2903    0.9337 P   0  0  0  0  0  5  0  0  0  0  0  0
    5.8877    0.8190    1.9288 O   0  0  0  0  0  0  0  0  0  0  0  0
    4.1185    2.8522    1.3772 O   0  0  0  0  0  0  0  0  0  0  0  0
    5.0700    1.2864   -0.5059 O   0  0  0  0  0  0  0  0  0  0  0  0
    1.9335   -2.8342    1.2562 H   0  0  0  0  0  0  0  0  0  0  0  0
    2.5379   -1.7161   -0.5615 H   0  0  0  0  0  0  0  0  0  0  0  0
    1.1028   -1.1549   -2.2746 H   0  0  0  0  0  0  0  0  0  0  0  0
   -0.2982   -3.4337   -1.2009 H   0  0  0  0  0  0  0  0  0  0  0  0
   -1.0138   -0.3138   -1.9191 H   0  0  0  0  0  0  0  0  0  0  0  0
   -4.9996   -1.4643    0.3206 H   0  0  0  0  0  0  0  0  0  0  0  0
   -3.5783    3.5678    0.1762 H   0  0  0  0  0  0  0  0  0  0  0  0
   -6.1086    1.9336   -0.3936 H   0  0  0  0  0  0  0  0  0  0  0  0
    0.8520   -0.5784    1.5470 H   0  0  0  0  0  0  0  0  0  0  0  0
    1.8267    1.5990    0.8712 H   0  0  0  0  0  0  0  0  0  0  0  0
    2.4564    0.8431   -0.6566 H   0  0  0  0  0  0  0  0  0  0  0  0
    6.0671   -0.1229    1.6805 H   0  0  0  0  0  0  0  0  0  0  0  0
    3.7117    3.2397    0.5614 H   0  0  0  0  0  0  0  0  0  0  0  0
  1  2  1  0
  2  3  1  0
  3  4  1  0
  3  5  1  0
  5  6  1  0
  6  7  1  0
  7  8  1  0
  7  9  2  0
  7 10  1  0
 10 11  1  0
 11 12  1  0
 11 13  1  0
 11 14  2  0
  5 15  1  0
 15 16  1  0
 16 17  1  0
 17 18  1  0
 18 19  1  0
 19 20  1  0
 19 21  1  0
 19 22  2  0
 16  2  1  0
  1 23  1  0
  2 24  1  6
  3 25  1  6
  4 26  1  0
  5 27  1  6
  8 28  1  0
 12 29  1  0
 13 30  1  0
 16 31  1  1
 17 32  1  0
 17 33  1  0
 20 34  1  0
 21 35  1  0
M  END
$$$$
