
     RDKit          3D

 53 57  0  0  0  0  0  0  0  0999 V2000
    3.2689   -2.8588    1.6795 C   0  0  0  0  0  0  0  0  0  0  0  0
    1.9302   -2.2906    1.2845 C   0  0  0  0  0  0  0  0  0  0  0  0
    1.8101   -1.0261    0.6666 C   0  0  0  0  0  0  0  0  0  0  0  0
    0.5257   -0.5455    0.3356 C   0  0  0  0  0  0  0  0  0  0  0  0
    0.4100    0.5760   -0.2351 O   0  0  0  0  0  0  0  0  0  0  0  0
   -0.5900   -1.2987    0.6041 N   0  0  0  0  0  0  0  0  0  0  0  0
   -0.4721   -2.5346    1.1729 C   0  0  0  0  0  0  0  0  0  0  0  0
    0.7767   -3.0467    1.5150 C   0  0  0  0  0  0  0  0  0  0  0  0
   -1.9072   -0.8068    0.2846 C   0  0  0  0  0  0  0  0  0  0  0  0
   -2.7658   -1.5589   -0.5518 C   0  0  0  0  0  0  0  0  0  0  0  0
   -4.0522   -1.0891   -0.8605 C   0  0  0  0  0  0  0  0  0  0  0  0
   -4.4670    0.1330   -0.3223 C   0  0  0  0  0  0  0  0  0  0  0  0
   -3.6402    0.8581    0.4895 C   0  0  0  0  0  0  0  0  0  0  0  0
   -4.2492    2.0520    0.9283 N   0  0  0  0  0  0  0  0  0  0  0  0
   -5.5926    2.1360    0.3639 C   0  0  0  0  0  0  0  0  0  0  0  0
   -5.7809    0.8411   -0.4986 C   0  0  0  0  0  0  0  0  0  0  0  0
   -6.9344   -0.0227    0.0401 C   0  0  0  0  0  0  0  0  0  0  0  0
   -6.0107    1.1880   -1.9796 C   0  0  0  0  0  0  0  0  0  0  0  0
   -2.3576    0.4201    0.8158 C   0  0  0  0  0  0  0  0  0  0  0  0
    3.0053   -0.2043    0.3615 C   0  0  0  0  0  0  0  0  0  0  0  0
    3.9458   -0.6451   -0.5839 C   0  0  0  0  0  0  0  0  0  0  0  0
    5.0733    0.1373   -0.8685 C   0  0  0  0  0  0  0  0  0  0  0  0
    6.0349   -0.2677   -1.7993 C   0  0  0  0  0  0  0  0  0  0  0  0
    7.1126    0.5222   -2.0444 N   0  0  0  0  0  0  0  0  0  0  0  0
    7.2782    1.7084   -1.3996 C   0  0  0  0  0  0  0  0  0  0  0  0
    8.4190    2.5170   -1.6769 N   0  0  0  0  0  0  0  0  0  0  0  0
    6.3557    2.1236   -0.4908 N   0  0  0  0  0  0  0  0  0  0  0  0
    5.2610    1.3690   -0.2109 C   0  0  0  0  0  0  0  0  0  0  0  0
    4.3198    1.8100    0.7246 C   0  0  0  0  0  0  0  0  0  0  0  0
    3.1958    1.0281    1.0084 C   0  0  0  0  0  0  0  0  0  0  0  0
    3.1560   -3.6651    2.4354 H   0  0  0  0  0  0  0  0  0  0  0  0
    3.9105   -2.0711    2.1277 H   0  0  0  0  0  0  0  0  0  0  0  0
    3.7732   -3.2816    0.7861 H   0  0  0  0  0  0  0  0  0  0  0  0
   -1.3531   -3.1313    1.3808 H   0  0  0  0  0  0  0  0  0  0  0  0
    0.8393   -4.0275    1.9704 H   0  0  0  0  0  0  0  0  0  0  0  0
   -2.4316   -2.5012   -0.9672 H   0  0  0  0  0  0  0  0  0  0  0  0
   -4.7067   -1.6636   -1.5028 H   0  0  0  0  0  0  0  0  0  0  0  0
   -3.8106    2.7626    1.5552 H   0  0  0  0  0  0  0  0  0  0  0  0
   -6.3321    2.1994    1.1916 H   0  0  0  0  0  0  0  0  0  0  0  0
   -5.6739    3.0615   -0.2467 H   0  0  0  0  0  0  0  0  0  0  0  0
   -6.7528   -0.2991    1.1015 H   0  0  0  0  0  0  0  0  0  0  0  0
   -7.0349   -0.9569   -0.5531 H   0  0  0  0  0  0  0  0  0  0  0  0
   -7.8929    0.5361   -0.0195 H   0  0  0  0  0  0  0  0  0  0  0  0
   -6.1032    0.2634   -2.5891 H   0  0  0  0  0  0  0  0  0  0  0  0
   -5.1621    1.7864   -2.3769 H   0  0  0  0  0  0  0  0  0  0  0  0
   -6.9439    1.7798   -2.0952 H   0  0  0  0  0  0  0  0  0  0  0  0
   -1.7282    1.0091    1.4708 H   0  0  0  0  0  0  0  0  0  0  0  0
    3.7943   -1.5878   -1.0972 H   0  0  0  0  0  0  0  0  0  0  0  0
    5.9324   -1.2064   -2.3292 H   0  0  0  0  0  0  0  0  0  0  0  0
    8.5526    3.4288   -1.1859 H   0  0  0  0  0  0  0  0  0  0  0  0
    9.1315    2.2050   -2.3735 H   0  0  0  0  0  0  0  0  0  0  0  0
    4.4568    2.7564    1.2330 H   0  0  0  0  0  0  0  0  0  0  0  0
    2.4758    1.3788    1.7377 H   0  0  0  0  0  0  0  0  0  0  0  0
  1  2  1  0
  2  3  2  0
  3  4  1  0
  4  5  2  0
  4  6  1  0
  6  7  1  0
  7  8  2  0
  6  9  1  0
  9 10  2  0
 10 11  1  0
 11 12  2  0
 12 13  1  0
 13 14  1  0
 14 15  1  0
 15 16  1  0
 16 17  1  0
 16 18  1  0
 13 19  2  0
  3 20  1  0
 20 21  2  0
 21 22  1  0
 22 23  2  0
 23 24  1  0
 24 25  2  0
 25 26  1  0
 25 27  1  0
 27 28  2  0
 28 29  1  0
 29 30  2  0
  8  2  1  0
 19  9  1  0
 30 20  1  0
 16 12  1  0
 28 22  1  0
  1 31  1  0
  1 32  1  0
  1 33  1  0
  7 34  1  0
  8 35  1  0
 10 36  1  0
 11 37  1  0
 14 38  1  0
 15 39  1  0
 15 40  1  0
 17 41  1  0
 17 42  1  0
 17 43  1  0
 18 44  1  0
 18 45  1  0
 18 46  1  0
 19 47  1  0
 21 48  1  0
 23 49  1  0
 26 50  1  0
 26 51  1  0
 29 52  1  0
 30 53  1  0
M  END
$$$$
