
     RDKit          3D

 22 23  0  0  0  0  0  0  0  0999 V2000
    4.7720    0.9705   -0.3834 N   0  0  0  0  0  0  0  0  0  0  0  0
    4.1421   -0.6162   -0.1113 S   0  0  0  0  0  6  0  0  0  0  0  0
    4.3800   -1.4728   -1.3226 O   0  0  0  0  0  0  0  0  0  0  0  0
    4.8407   -1.2294    1.0694 O   0  0  0  0  0  0  0  0  0  0  0  0
    2.4227   -0.5253    0.2121 C   0  0  0  0  0  0  0  0  0  0  0  0
    1.8555   -0.9085    1.3746 N   0  0  0  0  0  0  0  0  0  0  0  0
    0.5330   -0.7497    1.3889 N   0  0  0  0  0  0  0  0  0  0  0  0
    0.0358   -0.2230    0.2448 C   0  0  0  0  0  0  0  0  0  0  0  0
    1.2729    0.0364   -0.8769 S   0  0  0  0  0  0  0  0  0  0  0  0
   -1.4129   -0.0341    0.0065 C   0  0  0  0  0  0  0  0  0  0  0  0
   -2.3076   -0.9731    0.5522 C   0  0  0  0  0  0  0  0  0  0  0  0
   -3.6829   -0.8544    0.3401 C   0  0  0  0  0  0  0  0  0  0  0  0
   -4.1853    0.2074   -0.4110 C   0  0  0  0  0  0  0  0  0  0  0  0
   -3.3146    1.1594   -0.9433 C   0  0  0  0  0  0  0  0  0  0  0  0
   -1.9325    1.0532   -0.7382 C   0  0  0  0  0  0  0  0  0  0  0  0
   -0.9195    2.3532   -1.3578 Cl  0  0  0  0  0  0  0  0  0  0  0  0
    4.5143    1.5482    0.4479 H   0  0  0  0  0  0  0  0  0  0  0  0
    4.2556    1.3692   -1.1992 H   0  0  0  0  0  0  0  0  0  0  0  0
   -1.9398   -1.8121    1.1304 H   0  0  0  0  0  0  0  0  0  0  0  0
   -4.3598   -1.5887    0.7575 H   0  0  0  0  0  0  0  0  0  0  0  0
   -5.2516    0.2987   -0.5730 H   0  0  0  0  0  0  0  0  0  0  0  0
   -3.7182    1.9912   -1.5068 H   0  0  0  0  0  0  0  0  0  0  0  0
  1  2  1  0
  2  3  2  0
  2  4  2  0
  2  5  1  0
  5  6  2  0
  6  7  1  0
  7  8  2  0
  8  9  1  0
  8 10  1  0
 10 11  2  0
 11 12  1  0
 12 13  2  0
 13 14  1  0
 14 15  2  0
 15 16  1  0
  9  5  1  0
 15 10  1  0
  1 17  1  0
  1 18  1  0
 11 19  1  0
 12 20  1  0
 13 21  1  0
 14 22  1  0
M  END
$$$$
