
     RDKit          3D

 51 54  0  0  0  0  0  0  0  0999 V2000
    2.7157    1.4362   -0.5084 C   0  0  1  0  0  0  0  0  0  0  0  0
    2.4855    1.1957    0.9846 C   0  0  0  0  0  0  0  0  0  0  0  0
    1.4836    1.2949   -1.2187 O   0  0  0  0  0  0  0  0  0  0  0  0
    0.9238    0.0492   -1.5102 C   0  0  0  0  0  0  0  0  0  0  0  0
    1.5124   -0.9158   -2.3365 C   0  0  0  0  0  0  0  0  0  0  0  0
    0.5182   -2.2766   -2.3405 S   0  0  0  0  0  0  0  0  0  0  0  0
   -0.6518   -1.6454   -1.3093 C   0  0  0  0  0  0  0  0  0  0  0  0
   -0.3006   -0.3470   -0.9613 C   0  0  0  0  0  0  0  0  0  0  0  0
   -1.8549   -2.3248   -0.9228 N   0  0  0  0  0  0  0  0  0  0  0  0
   -2.5676   -3.1887   -1.6867 C   0  0  0  0  0  0  0  0  0  0  0  0
   -3.6766   -3.6649   -1.0650 N   0  0  0  0  0  0  0  0  0  0  0  0
   -3.6300   -3.0678    0.1405 C   0  0  0  0  0  0  0  0  0  0  0  0
   -4.5195   -3.2324    1.1960 C   0  0  0  0  0  0  0  0  0  0  0  0
   -4.2543   -2.5456    2.4065 C   0  0  0  0  0  0  0  0  0  0  0  0
   -5.1044   -2.6506    3.5183 O   0  0  0  0  0  0  0  0  0  0  0  0
   -6.2954   -3.4303    3.5498 C   0  0  0  0  0  0  0  0  0  0  0  0
   -3.0982   -1.7310    2.5202 C   0  0  0  0  0  0  0  0  0  0  0  0
   -2.8618   -1.0808    3.7417 O   0  0  0  0  0  0  0  0  0  0  0  0
   -1.7484   -0.2310    3.9992 C   0  0  0  0  0  0  0  0  0  0  0  0
   -2.2157   -1.5956    1.4200 C   0  0  0  0  0  0  0  0  0  0  0  0
   -2.5340   -2.2641    0.2370 C   0  0  0  0  0  0  0  0  0  0  0  0
    2.7426   -0.7940   -3.1400 C   0  0  0  0  0  0  0  0  0  0  0  0
    3.2226    0.4778   -3.5802 N   0  0  0  0  0  0  0  0  0  0  0  0
    3.3638   -1.8365   -3.4776 O   0  0  0  0  0  0  0  0  0  0  0  0
    3.2794    2.8249   -0.7332 C   0  0  0  0  0  0  0  0  0  0  0  0
    2.4087    3.9325   -0.7321 C   0  0  0  0  0  0  0  0  0  0  0  0
    2.9015    5.2263   -0.9155 C   0  0  0  0  0  0  0  0  0  0  0  0
    4.2692    5.4357   -1.0896 C   0  0  0  0  0  0  0  0  0  0  0  0
    5.1492    4.3526   -1.0727 C   0  0  0  0  0  0  0  0  0  0  0  0
    4.6687    3.0498   -0.8889 C   0  0  0  0  0  0  0  0  0  0  0  0
    5.8450    1.7392   -0.8476 Cl  0  0  0  0  0  0  0  0  0  0  0  0
    3.4285    0.6692   -0.8730 H   0  0  0  0  0  0  0  0  0  0  0  0
    2.1142    0.1619    1.1485 H   0  0  0  0  0  0  0  0  0  0  0  0
    3.4372    1.3192    1.5445 H   0  0  0  0  0  0  0  0  0  0  0  0
    1.7333    1.9103    1.3822 H   0  0  0  0  0  0  0  0  0  0  0  0
   -0.9040    0.3011   -0.3407 H   0  0  0  0  0  0  0  0  0  0  0  0
   -2.2938   -3.4644   -2.6971 H   0  0  0  0  0  0  0  0  0  0  0  0
   -5.3794   -3.8778    1.0785 H   0  0  0  0  0  0  0  0  0  0  0  0
   -7.0080   -3.0703    2.7779 H   0  0  0  0  0  0  0  0  0  0  0  0
   -6.7699   -3.3272    4.5470 H   0  0  0  0  0  0  0  0  0  0  0  0
   -6.0553   -4.5010    3.3793 H   0  0  0  0  0  0  0  0  0  0  0  0
   -1.7556    0.6311    3.2990 H   0  0  0  0  0  0  0  0  0  0  0  0
   -1.8183    0.1535    5.0372 H   0  0  0  0  0  0  0  0  0  0  0  0
   -0.8008   -0.8007    3.8943 H   0  0  0  0  0  0  0  0  0  0  0  0
   -1.3091   -1.0163    1.4988 H   0  0  0  0  0  0  0  0  0  0  0  0
    2.6522    1.3437   -3.4654 H   0  0  0  0  0  0  0  0  0  0  0  0
    4.1270    0.5446   -4.0976 H   0  0  0  0  0  0  0  0  0  0  0  0
    1.3443    3.7954   -0.5868 H   0  0  0  0  0  0  0  0  0  0  0  0
    2.2214    6.0684   -0.9187 H   0  0  0  0  0  0  0  0  0  0  0  0
    4.6491    6.4394   -1.2302 H   0  0  0  0  0  0  0  0  0  0  0  0
    6.2103    4.5280   -1.1975 H   0  0  0  0  0  0  0  0  0  0  0  0
  1  2  1  0
  1  3  1  0
  3  4  1  0
  4  5  2  0
  5  6  1  0
  6  7  1  0
  7  8  2  0
  7  9  1  0
  9 10  1  0
 10 11  2  0
 11 12  1  0
 12 13  2  0
 13 14  1  0
 14 15  1  0
 15 16  1  0
 14 17  2  0
 17 18  1  0
 18 19  1  0
 17 20  1  0
 20 21  2  0
  5 22  1  0
 22 23  1  0
 22 24  2  0
  1 25  1  0
 25 26  2  0
 26 27  1  0
 27 28  2  0
 28 29  1  0
 29 30  2  0
 30 31  1  0
  8  4  1  0
 21  9  1  0
 30 25  1  0
 21 12  1  0
  1 32  1  6
  2 33  1  0
  2 34  1  0
  2 35  1  0
  8 36  1  0
 10 37  1  0
 13 38  1  0
 16 39  1  0
 16 40  1  0
 16 41  1  0
 19 42  1  0
 19 43  1  0
 19 44  1  0
 20 45  1  0
 23 46  1  0
 23 47  1  0
 26 48  1  0
 27 49  1  0
 28 50  1  0
 29 51  1  0
M  END
$$$$
