
     RDKit          3D

 72 76  0  0  0  0  0  0  0  0999 V2000
    6.5275   -2.0326    0.5229 C   0  0  0  0  0  0  0  0  0  0  0  0
    5.6060   -1.1629    1.2645 N   0  0  0  0  0  0  0  0  0  0  0  0
    6.0246   -0.6343    2.5688 C   0  0  0  0  0  0  0  0  0  0  0  0
    4.3035   -0.8292    0.7167 C   0  0  0  0  0  0  0  0  0  0  0  0
    3.2594   -0.3841    1.5528 C   0  0  0  0  0  0  0  0  0  0  0  0
    2.0077   -0.0602    1.0245 C   0  0  0  0  0  0  0  0  0  0  0  0
    1.7670   -0.1586   -0.3563 C   0  0  0  0  0  0  0  0  0  0  0  0
    2.7952   -0.6200   -1.1914 C   0  0  0  0  0  0  0  0  0  0  0  0
    4.0477   -0.9451   -0.6649 C   0  0  0  0  0  0  0  0  0  0  0  0
    0.4051    0.1779   -0.9430 C   0  0  1  0  0  0  0  0  0  0  0  0
   -0.5578   -0.9977   -0.6661 C   0  0  0  0  0  0  0  0  0  0  0  0
   -2.0330   -0.6946   -1.0716 C   0  0  2  0  0  0  0  0  0  0  0  0
   -2.0854   -0.4973   -2.6181 C   0  0  0  0  0  0  0  0  0  0  0  0
   -2.5237    0.6336   -0.3960 C   0  0  1  0  0  0  0  0  0  0  0  0
   -3.7201    0.2564    0.4693 C   0  0  0  0  0  0  0  0  0  0  0  0
   -4.2861   -0.9977   -0.1560 C   0  0  0  0  0  0  0  0  0  0  0  0
   -3.0776   -1.8245   -0.6275 C   0  0  1  0  0  0  0  0  0  0  0  0
   -3.4797   -2.6124   -1.7256 O   0  0  0  0  0  0  0  0  0  0  0  0
   -2.5970   -2.7803    0.5311 C   0  0  0  0  0  0  0  0  0  0  0  0
   -3.3321   -4.1382    0.6710 C   0  0  0  0  0  0  0  0  0  0  0  0
   -4.7669   -4.0720    1.2081 C   0  0  0  0  0  0  0  0  0  0  0  0
   -5.6777   -3.7978    0.1772 O   0  0  0  0  0  0  0  0  0  0  0  0
   -1.4437    1.4222    0.4061 C   0  0  2  0  0  0  0  0  0  0  0  0
   -1.9972    2.8070    0.8132 C   0  0  0  0  0  0  0  0  0  0  0  0
   -0.8922    3.7031    1.3480 C   0  0  0  0  0  0  0  0  0  0  0  0
    0.1581    3.8589    0.2885 C   0  0  0  0  0  0  0  0  0  0  0  0
    0.7960    5.0316    0.1508 C   0  0  0  0  0  0  0  0  0  0  0  0
    1.8154    5.2236   -0.8886 C   0  0  0  0  0  0  0  0  0  0  0  0
    2.4661    6.3008   -0.9398 O   0  0  0  0  0  0  0  0  0  0  0  0
    2.0156    4.1739   -1.9370 C   0  0  0  0  0  0  0  0  0  0  0  0
    1.8263    2.7725   -1.3489 C   0  0  0  0  0  0  0  0  0  0  0  0
    0.5491    2.6693   -0.5258 C   0  0  0  0  0  0  0  0  0  0  0  0
   -0.1415    1.4983   -0.3961 C   0  0  0  0  0  0  0  0  0  0  0  0
    7.3774   -2.3634    1.1566 H   0  0  0  0  0  0  0  0  0  0  0  0
    5.9931   -2.9440    0.1799 H   0  0  0  0  0  0  0  0  0  0  0  0
    6.9389   -1.4875   -0.3522 H   0  0  0  0  0  0  0  0  0  0  0  0
    7.1088   -0.7957    2.7469 H   0  0  0  0  0  0  0  0  0  0  0  0
    5.8393    0.4601    2.6099 H   0  0  0  0  0  0  0  0  0  0  0  0
    5.4607   -1.1408    3.3798 H   0  0  0  0  0  0  0  0  0  0  0  0
    3.3982   -0.2951    2.6211 H   0  0  0  0  0  0  0  0  0  0  0  0
    1.2257    0.2707    1.6958 H   0  0  0  0  0  0  0  0  0  0  0  0
    2.6310   -0.7217   -2.2570 H   0  0  0  0  0  0  0  0  0  0  0  0
    4.8152   -1.2780   -1.3495 H   0  0  0  0  0  0  0  0  0  0  0  0
    0.5000    0.2746   -2.0445 H   0  0  0  0  0  0  0  0  0  0  0  0
   -0.5086   -1.2020    0.4248 H   0  0  0  0  0  0  0  0  0  0  0  0
   -0.1961   -1.9035   -1.2019 H   0  0  0  0  0  0  0  0  0  0  0  0
   -3.1361   -0.4022   -2.9678 H   0  0  0  0  0  0  0  0  0  0  0  0
   -1.6116   -1.3507   -3.1482 H   0  0  0  0  0  0  0  0  0  0  0  0
   -1.5633    0.4309   -2.9311 H   0  0  0  0  0  0  0  0  0  0  0  0
   -2.9159    1.3216   -1.1816 H   0  0  0  0  0  0  0  0  0  0  0  0
   -4.4816    1.0668    0.4883 H   0  0  0  0  0  0  0  0  0  0  0  0
   -3.4068    0.0354    1.5135 H   0  0  0  0  0  0  0  0  0  0  0  0
   -4.9134   -0.7103   -1.0300 H   0  0  0  0  0  0  0  0  0  0  0  0
   -4.9377   -1.5032    0.5758 H   0  0  0  0  0  0  0  0  0  0  0  0
   -2.6866   -3.1330   -2.0194 H   0  0  0  0  0  0  0  0  0  0  0  0
   -2.5896   -2.2505    1.5081 H   0  0  0  0  0  0  0  0  0  0  0  0
   -1.5559   -3.0968    0.3285 H   0  0  0  0  0  0  0  0  0  0  0  0
   -3.3093   -4.7007   -0.2868 H   0  0  0  0  0  0  0  0  0  0  0  0
   -2.7463   -4.7496    1.3929 H   0  0  0  0  0  0  0  0  0  0  0  0
   -5.0270   -5.0464    1.6818 H   0  0  0  0  0  0  0  0  0  0  0  0
   -4.8503   -3.3004    2.0018 H   0  0  0  0  0  0  0  0  0  0  0  0
   -5.7719   -4.6327   -0.3518 H   0  0  0  0  0  0  0  0  0  0  0  0
   -1.2119    0.8722    1.3452 H   0  0  0  0  0  0  0  0  0  0  0  0
   -2.7728    2.6856    1.6002 H   0  0  0  0  0  0  0  0  0  0  0  0
   -2.4718    3.3099   -0.0591 H   0  0  0  0  0  0  0  0  0  0  0  0
   -1.3335    4.6853    1.6280 H   0  0  0  0  0  0  0  0  0  0  0  0
   -0.4372    3.2492    2.2550 H   0  0  0  0  0  0  0  0  0  0  0  0
    0.5561    5.8652    0.8008 H   0  0  0  0  0  0  0  0  0  0  0  0
    3.0364    4.2564   -2.3695 H   0  0  0  0  0  0  0  0  0  0  0  0
    1.2763    4.3379   -2.7506 H   0  0  0  0  0  0  0  0  0  0  0  0
    2.6924    2.5337   -0.6941 H   0  0  0  0  0  0  0  0  0  0  0  0
    1.8275    2.0634   -2.2007 H   0  0  0  0  0  0  0  0  0  0  0  0
  1  2  1  0
  2  3  1  0
  2  4  1  0
  4  5  2  0
  5  6  1  0
  6  7  2  0
  7  8  1  0
  8  9  2  0
  7 10  1  0
 10 11  1  0
 11 12  1  0
 12 13  1  6
 12 14  1  0
 14 15  1  0
 15 16  1  0
 16 17  1  0
 17 18  1  6
 17 19  1  0
 19 20  1  0
 20 21  1  0
 21 22  1  0
 14 23  1  0
 23 24  1  0
 24 25  1  0
 25 26  1  0
 26 27  2  0
 27 28  1  0
 28 29  2  0
 28 30  1  0
 30 31  1  0
 31 32  1  0
 32 33  2  0
  9  4  1  0
 33 10  1  0
 17 12  1  0
 33 23  1  0
 32 26  1  0
  1 34  1  0
  1 35  1  0
  1 36  1  0
  3 37  1  0
  3 38  1  0
  3 39  1  0
  5 40  1  0
  6 41  1  0
  8 42  1  0
  9 43  1  0
 10 44  1  6
 11 45  1  0
 11 46  1  0
 13 47  1  0
 13 48  1  0
 13 49  1  0
 14 50  1  6
 15 51  1  0
 15 52  1  0
 16 53  1  0
 16 54  1  0
 18 55  1  0
 19 56  1  0
 19 57  1  0
 20 58  1  0
 20 59  1  0
 21 60  1  0
 21 61  1  0
 22 62  1  0
 23 63  1  1
 24 64  1  0
 24 65  1  0
 25 66  1  0
 25 67  1  0
 27 68  1  0
 30 69  1  0
 30 70  1  0
 31 71  1  0
 31 72  1  0
M  END
$$$$
