
     RDKit          3D

 20 20  0  0  0  0  0  0  0  0999 V2000
   -3.7619    0.1493   -0.5072 C   0  0  0  0  0  0  0  0  0  0  0  0
   -2.6954   -0.7397   -0.1943 O   0  0  0  0  0  0  0  0  0  0  0  0
   -1.3320   -0.4006   -0.1506 C   0  0  0  0  0  0  0  0  0  0  0  0
   -0.4231   -1.4139    0.1769 C   0  0  0  0  0  0  0  0  0  0  0  0
   -0.8760   -2.6691    0.4239 F   0  0  0  0  0  0  0  0  0  0  0  0
    0.9490   -1.1534    0.2427 C   0  0  0  0  0  0  0  0  0  0  0  0
    1.7965   -2.1793    0.5110 F   0  0  0  0  0  0  0  0  0  0  0  0
    1.4399    0.1398   -0.0144 C   0  0  0  0  0  0  0  0  0  0  0  0
    2.8915    0.4290    0.0514 C   0  0  0  0  0  0  0  0  0  0  0  0
    3.7210   -0.1765    1.0454 N   0  0  0  0  0  0  0  0  0  0  0  0
    3.4070    1.2359   -0.7682 O   0  0  0  0  0  0  0  0  0  0  0  0
    0.5310    1.1581   -0.3568 C   0  0  0  0  0  0  0  0  0  0  0  0
    0.9704    2.4190   -0.6046 F   0  0  0  0  0  0  0  0  0  0  0  0
   -0.8425    0.8963   -0.4212 C   0  0  0  0  0  0  0  0  0  0  0  0
   -1.6745    1.9168   -0.7449 F   0  0  0  0  0  0  0  0  0  0  0  0
   -3.6398    0.5479   -1.5363 H   0  0  0  0  0  0  0  0  0  0  0  0
   -4.7200   -0.4077   -0.4601 H   0  0  0  0  0  0  0  0  0  0  0  0
   -3.8018    0.9761    0.2327 H   0  0  0  0  0  0  0  0  0  0  0  0
    4.7504   -0.0018    1.0449 H   0  0  0  0  0  0  0  0  0  0  0  0
    3.3102   -0.7262    1.8319 H   0  0  0  0  0  0  0  0  0  0  0  0
  1  2  1  0
  2  3  1  0
  3  4  2  0
  4  5  1  0
  4  6  1  0
  6  7  1  0
  6  8  2  0
  8  9  1  0
  9 10  1  0
  9 11  2  0
  8 12  1  0
 12 13  1  0
 12 14  2  0
 14 15  1  0
 14  3  1  0
  1 16  1  0
  1 17  1  0
  1 18  1  0
 10 19  1  0
 10 20  1  0
M  END
$$$$
