
     RDKit          3D

 83 88  0  0  0  0  0  0  0  0999 V2000
    0.9358    1.0471    1.4851 C   0  0  2  0  0  0  0  0  0  0  0  0
   -0.4629    0.6609    2.0155 C   0  0  0  0  0  0  0  0  0  0  0  0
   -1.1236   -0.0409    0.8384 C   0  0  1  0  0  0  0  0  0  0  0  0
   -2.6582   -0.2173    0.8267 C   0  0  2  0  0  0  0  0  0  0  0  0
   -3.1173   -0.9340    2.1155 C   0  0  0  0  0  0  0  0  0  0  0  0
   -4.6185   -1.2105    2.1004 C   0  0  0  0  0  0  0  0  0  0  0  0
   -4.9764   -1.9938    0.8634 C   0  0  0  0  0  0  0  0  0  0  0  0
   -5.6188   -3.1664    0.9877 C   0  0  0  0  0  0  0  0  0  0  0  0
   -5.9221   -3.9844   -0.1853 C   0  0  0  0  0  0  0  0  0  0  0  0
   -6.5431   -5.0720   -0.0567 O   0  0  0  0  0  0  0  0  0  0  0  0
   -5.4849   -3.5395   -1.5055 C   0  0  0  0  0  0  0  0  0  0  0  0
   -4.8515   -2.3756   -1.6535 C   0  0  0  0  0  0  0  0  0  0  0  0
   -4.5873   -1.4029   -0.5022 C   0  0  1  0  0  0  0  0  0  0  0  0
   -5.4850   -0.1664   -0.7498 C   0  0  0  0  0  0  0  0  0  0  0  0
   -3.0461   -1.0588   -0.4431 C   0  0  1  0  0  0  0  0  0  0  0  0
   -2.4252   -0.4836   -1.7676 C   0  0  1  0  0  0  0  0  0  0  0  0
   -3.1179    0.6565   -2.2002 O   0  0  0  0  0  0  0  0  0  0  0  0
   -0.9069   -0.1712   -1.6388 C   0  0  0  0  0  0  0  0  0  0  0  0
   -0.5798    0.6931   -0.3930 C   0  0  1  0  0  0  0  0  0  0  0  0
   -1.1643    2.1371   -0.5593 C   0  0  0  0  0  0  0  0  0  0  0  0
    0.9345    0.7956   -0.0275 C   0  0  2  0  0  0  0  0  0  0  0  0
    1.5613   -0.4446   -0.1757 O   0  0  0  0  0  0  0  0  0  0  0  0
    2.3473   -0.6256    0.9813 C   0  0  1  0  0  0  0  0  0  0  0  0
    1.9047    0.2056    2.0316 O   0  0  0  0  0  0  0  0  0  0  0  0
    2.2863   -2.1004    1.4272 C   0  0  0  0  0  0  0  0  0  0  0  0
    2.7837   -3.0461    0.3154 C   0  0  0  0  0  0  0  0  0  0  0  0
    2.6012   -4.5284    0.7030 C   0  0  0  0  0  0  0  0  0  0  0  0
    2.6564   -4.7786    2.2228 C   0  0  0  0  0  0  0  0  0  0  0  0
    3.5758   -3.7757    2.9246 C   0  0  0  0  0  0  0  0  0  0  0  0
    3.0914   -2.3232    2.7357 C   0  0  0  0  0  0  0  0  0  0  0  0
    1.7047    1.8047   -0.8811 C   0  0  0  0  0  0  0  0  0  0  0  0
    1.7586    1.6211   -2.0889 O   0  0  0  0  0  0  0  0  0  0  0  0
    2.4113    3.0005   -0.2955 C   0  0  0  0  0  0  0  0  0  0  0  0
    3.1546    3.6848   -1.3007 O   0  0  0  0  0  0  0  0  0  0  0  0
    3.9051    4.8329   -1.0323 C   0  0  0  0  0  0  0  0  0  0  0  0
    3.9496    5.3110    0.1353 O   0  0  0  0  0  0  0  0  0  0  0  0
    4.6610    5.4961   -2.1490 C   0  0  0  0  0  0  0  0  0  0  0  0
    6.1649    5.4899   -1.8590 C   0  0  0  0  0  0  0  0  0  0  0  0
    4.1501    6.9227   -2.3717 C   0  0  0  0  0  0  0  0  0  0  0  0
    1.1482    2.0957    1.7750 H   0  0  0  0  0  0  0  0  0  0  0  0
   -1.0385    1.5698    2.2966 H   0  0  0  0  0  0  0  0  0  0  0  0
   -0.3969   -0.0107    2.8999 H   0  0  0  0  0  0  0  0  0  0  0  0
   -0.7041   -1.0762    0.8418 H   0  0  0  0  0  0  0  0  0  0  0  0
   -3.1528    0.7720    0.8102 H   0  0  0  0  0  0  0  0  0  0  0  0
   -2.5711   -1.8965    2.2353 H   0  0  0  0  0  0  0  0  0  0  0  0
   -2.8902   -0.3004    2.9999 H   0  0  0  0  0  0  0  0  0  0  0  0
   -5.1792   -0.2518    2.1113 H   0  0  0  0  0  0  0  0  0  0  0  0
   -4.8874   -1.7591    3.0299 H   0  0  0  0  0  0  0  0  0  0  0  0
   -5.8983   -3.5422    1.9650 H   0  0  0  0  0  0  0  0  0  0  0  0
   -5.6830   -4.1578   -2.3725 H   0  0  0  0  0  0  0  0  0  0  0  0
   -4.5971   -2.0759   -2.6618 H   0  0  0  0  0  0  0  0  0  0  0  0
   -5.2111    0.6883   -0.1008 H   0  0  0  0  0  0  0  0  0  0  0  0
   -6.5479   -0.4204   -0.5436 H   0  0  0  0  0  0  0  0  0  0  0  0
   -5.4459    0.1701   -1.8062 H   0  0  0  0  0  0  0  0  0  0  0  0
   -2.5414   -2.0457   -0.3116 H   0  0  0  0  0  0  0  0  0  0  0  0
   -2.5072   -1.2699   -2.5518 H   0  0  0  0  0  0  0  0  0  0  0  0
   -2.8992    0.7843   -3.1603 H   0  0  0  0  0  0  0  0  0  0  0  0
   -0.5501    0.3357   -2.5611 H   0  0  0  0  0  0  0  0  0  0  0  0
   -0.3660   -1.1412   -1.5813 H   0  0  0  0  0  0  0  0  0  0  0  0
   -0.8233    2.8137    0.2515 H   0  0  0  0  0  0  0  0  0  0  0  0
   -2.2665    2.1773   -0.5579 H   0  0  0  0  0  0  0  0  0  0  0  0
   -0.8297    2.5783   -1.5220 H   0  0  0  0  0  0  0  0  0  0  0  0
    3.4004   -0.3588    0.7387 H   0  0  0  0  0  0  0  0  0  0  0  0
    1.2201   -2.3483    1.6306 H   0  0  0  0  0  0  0  0  0  0  0  0
    3.8613   -2.8463    0.1225 H   0  0  0  0  0  0  0  0  0  0  0  0
    2.2337   -2.8580   -0.6322 H   0  0  0  0  0  0  0  0  0  0  0  0
    1.6223   -4.8917    0.3208 H   0  0  0  0  0  0  0  0  0  0  0  0
    3.3932   -5.1268    0.2021 H   0  0  0  0  0  0  0  0  0  0  0  0
    1.6337   -4.6929    2.6521 H   0  0  0  0  0  0  0  0  0  0  0  0
    3.0158   -5.8125    2.4159 H   0  0  0  0  0  0  0  0  0  0  0  0
    3.6260   -4.0128    4.0093 H   0  0  0  0  0  0  0  0  0  0  0  0
    4.6031   -3.8809    2.5109 H   0  0  0  0  0  0  0  0  0  0  0  0
    3.9832   -1.6587    2.7607 H   0  0  0  0  0  0  0  0  0  0  0  0
    2.4484   -2.0404    3.5981 H   0  0  0  0  0  0  0  0  0  0  0  0
    1.6579    3.6937    0.1359 H   0  0  0  0  0  0  0  0  0  0  0  0
    3.1077    2.6596    0.5007 H   0  0  0  0  0  0  0  0  0  0  0  0
    4.4889    4.9193   -3.0845 H   0  0  0  0  0  0  0  0  0  0  0  0
    6.3935    6.0776   -0.9437 H   0  0  0  0  0  0  0  0  0  0  0  0
    6.7200    5.9309   -2.7143 H   0  0  0  0  0  0  0  0  0  0  0  0
    6.5211    4.4473   -1.7149 H   0  0  0  0  0  0  0  0  0  0  0  0
    4.6750    7.3853   -3.2346 H   0  0  0  0  0  0  0  0  0  0  0  0
    3.0617    6.9073   -2.5954 H   0  0  0  0  0  0  0  0  0  0  0  0
    4.3230    7.5498   -1.4704 H   0  0  0  0  0  0  0  0  0  0  0  0
  1  2  1  0
  2  3  1  0
  3  4  1  0
  4  5  1  0
  5  6  1  0
  6  7  1  0
  7  8  2  0
  8  9  1  0
  9 10  2  0
  9 11  1  0
 11 12  2  0
 12 13  1  0
 13 14  1  6
 13 15  1  0
 15 16  1  0
 16 17  1  0
 16 18  1  0
 18 19  1  0
 19 20  1  6
 19 21  1  0
 21 22  1  0
 22 23  1  0
 23 24  1  0
 23 25  1  0
 25 26  1  0
 26 27  1  0
 27 28  1  0
 28 29  1  0
 29 30  1  0
 21 31  1  6
 31 32  2  0
 31 33  1  0
 33 34  1  0
 34 35  1  0
 35 36  2  0
 35 37  1  0
 37 38  1  0
 37 39  1  0
 21  1  1  0
 30 25  1  0
 24  1  1  0
 19  3  1  0
 15  4  1  0
 13  7  1  0
  1 40  1  6
  2 41  1  0
  2 42  1  0
  3 43  1  6
  4 44  1  6
  5 45  1  0
  5 46  1  0
  6 47  1  0
  6 48  1  0
  8 49  1  0
 11 50  1  0
 12 51  1  0
 14 52  1  0
 14 53  1  0
 14 54  1  0
 15 55  1  1
 16 56  1  6
 17 57  1  0
 18 58  1  0
 18 59  1  0
 20 60  1  0
 20 61  1  0
 20 62  1  0
 23 63  1  6
 25 64  1  0
 26 65  1  0
 26 66  1  0
 27 67  1  0
 27 68  1  0
 28 69  1  0
 28 70  1  0
 29 71  1  0
 29 72  1  0
 30 73  1  0
 30 74  1  0
 33 75  1  0
 33 76  1  0
 37 77  1  0
 38 78  1  0
 38 79  1  0
 38 80  1  0
 39 81  1  0
 39 82  1  0
 39 83  1  0
M  END
$$$$
