
     RDKit          3D

 12 12  0  0  0  0  0  0  0  0999 V2000
    2.8954   -0.3381    0.4702 S   0  0  0  0  0  0  0  0  0  0  0  0
    1.1265   -0.2453    0.2292 C   0  0  0  0  0  0  0  0  0  0  0  0
    0.4381   -1.3562   -0.1492 N   0  0  0  0  0  0  0  0  0  0  0  0
   -0.9080   -1.3300   -0.3437 C   0  0  0  0  0  0  0  0  0  0  0  0
   -1.6192   -0.1421   -0.1550 C   0  0  0  0  0  0  0  0  0  0  0  0
   -0.9325    1.0102    0.2337 C   0  0  0  0  0  0  0  0  0  0  0  0
    0.4497    0.9626    0.4284 C   0  0  0  0  0  0  0  0  0  0  0  0
    3.1495   -0.0055   -0.8736 H   0  0  0  0  0  0  0  0  0  0  0  0
   -1.4259   -2.2308   -0.6446 H   0  0  0  0  0  0  0  0  0  0  0  0
   -2.6902   -0.1154   -0.3084 H   0  0  0  0  0  0  0  0  0  0  0  0
   -1.4701    1.9375    0.3836 H   0  0  0  0  0  0  0  0  0  0  0  0
    0.9867    1.8531    0.7294 H   0  0  0  0  0  0  0  0  0  0  0  0
  1  2  1  0
  2  3  2  0
  3  4  1  0
  4  5  2  0
  5  6  1  0
  6  7  2  0
  7  2  1  0
  1  8  1  0
  4  9  1  0
  5 10  1  0
  6 11  1  0
  7 12  1  0
M  END
$$$$
