
     RDKit          3D

 35 38  0  0  0  0  0  0  0  0999 V2000
   -3.8265    0.4628    1.5299 C   0  0  0  0  0  0  0  0  0  0  0  0
   -3.1301   -0.7780    1.0674 C   0  0  0  0  0  0  0  0  0  0  0  0
   -3.4255   -2.0056    1.5405 N   0  0  0  0  0  0  0  0  0  0  0  0
   -2.5970   -2.8592    0.9555 N   0  0  0  0  0  0  0  0  0  0  0  0
   -1.8197   -2.1371    0.1270 C   0  0  0  0  0  0  0  0  0  0  0  0
   -0.6794   -2.6840   -0.6586 C   0  0  0  0  0  0  0  0  0  0  0  0
    0.5504   -2.0567   -0.1910 N   0  0  0  0  0  0  0  0  0  0  0  0
    0.8288   -0.7819   -0.2419 C   0  0  0  0  0  0  0  0  0  0  0  0
    2.1320   -0.3329    0.3146 C   0  0  0  0  0  0  0  0  0  0  0  0
    2.2584    0.9326    0.9195 C   0  0  0  0  0  0  0  0  0  0  0  0
    3.4842    1.3445    1.4508 C   0  0  0  0  0  0  0  0  0  0  0  0
    4.5935    0.4982    1.3921 C   0  0  0  0  0  0  0  0  0  0  0  0
    4.4784   -0.7639    0.8052 C   0  0  0  0  0  0  0  0  0  0  0  0
    3.2549   -1.1812    0.2723 C   0  0  0  0  0  0  0  0  0  0  0  0
   -0.1063    0.2150   -0.8589 C   0  0  0  0  0  0  0  0  0  0  0  0
   -1.5073    0.2114   -0.6140 C   0  0  0  0  0  0  0  0  0  0  0  0
   -2.3138    1.1920   -1.2184 C   0  0  0  0  0  0  0  0  0  0  0  0
   -1.7524    2.1786   -2.0281 C   0  0  0  0  0  0  0  0  0  0  0  0
   -0.3793    2.1905   -2.2651 C   0  0  0  0  0  0  0  0  0  0  0  0
    0.3224    3.4253   -3.2947 Cl  0  0  0  0  0  0  0  0  0  0  0  0
    0.4361    1.2131   -1.6917 C   0  0  0  0  0  0  0  0  0  0  0  0
   -2.1226   -0.8300    0.1681 N   0  0  0  0  0  0  0  0  0  0  0  0
   -4.6859    0.6804    0.8630 H   0  0  0  0  0  0  0  0  0  0  0  0
   -3.1241    1.3222    1.5334 H   0  0  0  0  0  0  0  0  0  0  0  0
   -4.2053    0.3177    2.5633 H   0  0  0  0  0  0  0  0  0  0  0  0
   -0.8266   -2.4774   -1.7404 H   0  0  0  0  0  0  0  0  0  0  0  0
   -0.6077   -3.7820   -0.5117 H   0  0  0  0  0  0  0  0  0  0  0  0
    1.4072    1.5978    0.9931 H   0  0  0  0  0  0  0  0  0  0  0  0
    3.5725    2.3193    1.9129 H   0  0  0  0  0  0  0  0  0  0  0  0
    5.5413    0.8188    1.8047 H   0  0  0  0  0  0  0  0  0  0  0  0
    5.3383   -1.4199    0.7626 H   0  0  0  0  0  0  0  0  0  0  0  0
    3.1894   -2.1614   -0.1835 H   0  0  0  0  0  0  0  0  0  0  0  0
   -3.3870    1.1757   -1.0921 H   0  0  0  0  0  0  0  0  0  0  0  0
   -2.3900    2.9250   -2.4848 H   0  0  0  0  0  0  0  0  0  0  0  0
    1.4989    1.2303   -1.9012 H   0  0  0  0  0  0  0  0  0  0  0  0
  1  2  1  0
  2  3  2  0
  3  4  1  0
  4  5  2  0
  5  6  1  0
  6  7  1  0
  7  8  2  0
  8  9  1  0
  9 10  2  0
 10 11  1  0
 11 12  2  0
 12 13  1  0
 13 14  2  0
  8 15  1  0
 15 16  2  0
 16 17  1  0
 17 18  2  0
 18 19  1  0
 19 20  1  0
 19 21  2  0
 16 22  1  0
 22  2  1  0
 22  5  1  0
 14  9  1  0
 21 15  1  0
  1 23  1  0
  1 24  1  0
  1 25  1  0
  6 26  1  0
  6 27  1  0
 10 28  1  0
 11 29  1  0
 12 30  1  0
 13 31  1  0
 14 32  1  0
 17 33  1  0
 18 34  1  0
 21 35  1  0
M  END
$$$$
