
     RDKit          3D

111118  0  0  0  0  0  0  0  0999 V2000
   -8.2981   -5.2254    1.3690 C   0  0  0  0  0  0  0  0  0  0  0  0
   -7.9918   -4.2921    0.1793 C   0  0  0  0  0  0  0  0  0  0  0  0
   -7.9824   -5.1397   -1.1126 C   0  0  0  0  0  0  0  0  0  0  0  0
   -9.1094   -3.1898    0.0705 C   0  0  0  0  0  0  0  0  0  0  0  0
   -8.6006   -1.7718    0.3685 C   0  0  0  0  0  0  0  0  0  0  0  0
   -7.3556   -1.4911   -0.4378 C   0  0  0  0  0  0  0  0  0  0  0  0
   -7.2328   -0.1773   -1.1830 C   0  0  0  0  0  0  0  0  0  0  0  0
   -5.9857    0.5151   -0.8060 N   0  0  0  0  0  0  0  0  0  0  0  0
   -6.1023    1.1935    0.4939 C   0  0  0  0  0  0  0  0  0  0  0  0
   -4.6937    1.5139    0.9917 C   0  0  0  0  0  0  0  0  0  0  0  0
   -3.8209    1.9319   -0.1181 N   0  0  0  0  0  0  0  0  0  0  0  0
   -4.4114    2.3832   -1.3891 C   0  0  0  0  0  0  0  0  0  0  0  0
   -5.5686    1.4697   -1.8514 C   0  0  0  0  0  0  0  0  0  0  0  0
   -2.4123    2.1264    0.1237 C   0  0  0  0  0  0  0  0  0  0  0  0
   -1.6504    1.1242    0.7423 C   0  0  0  0  0  0  0  0  0  0  0  0
   -0.2792    1.2946    0.9370 C   0  0  0  0  0  0  0  0  0  0  0  0
    0.3622    2.4726    0.5232 C   0  0  0  0  0  0  0  0  0  0  0  0
    1.8319    2.5700    0.6632 C   0  0  0  0  0  0  0  0  0  0  0  0
    2.3907    2.0852    1.6847 O   0  0  0  0  0  0  0  0  0  0  0  0
    2.6269    3.1761   -0.3632 N   0  0  0  0  0  0  0  0  0  0  0  0
    4.3056    3.5274   -0.1223 S   0  0  0  0  0  6  0  0  0  0  0  0
    4.4539    4.3703    1.1136 O   0  0  0  0  0  0  0  0  0  0  0  0
    4.8276    4.2930   -1.3049 O   0  0  0  0  0  0  0  0  0  0  0  0
    5.2126    2.0286    0.0457 C   0  0  0  0  0  0  0  0  0  0  0  0
    6.3665    1.9889    0.8314 C   0  0  0  0  0  0  0  0  0  0  0  0
    7.0794    0.7979    0.9742 C   0  0  0  0  0  0  0  0  0  0  0  0
    6.6545   -0.3785    0.3262 C   0  0  0  0  0  0  0  0  0  0  0  0
    7.3389   -1.6261    0.5577 N   0  0  0  0  0  0  0  0  0  0  0  0
    8.7400   -1.6917    0.9901 C   0  0  0  0  0  0  0  0  0  0  0  0
    9.3322   -3.1155    0.9135 C   0  0  0  0  0  0  0  0  0  0  0  0
    9.2916   -3.7008   -0.5096 C   0  0  0  0  0  0  0  0  0  0  0  0
    9.9088   -5.1198   -0.5379 C   0  0  0  0  0  0  0  0  0  0  0  0
   10.0839   -5.6883    0.7516 O   0  0  0  0  0  0  0  0  0  0  0  0
    8.8998   -5.5514    1.5120 C   0  0  0  0  0  0  0  0  0  0  0  0
    8.6886   -4.0856    1.9297 C   0  0  0  0  0  0  0  0  0  0  0  0
    5.5045   -0.3299   -0.5006 C   0  0  0  0  0  0  0  0  0  0  0  0
    4.7893    0.8742   -0.6207 C   0  0  0  0  0  0  0  0  0  0  0  0
    5.0775   -1.4767   -1.2546 N   0  0  0  0  0  4  0  0  0  0  0  0
    6.0024   -2.2595   -1.9066 O   0  0  0  0  0  1  0  0  0  0  0  0
    3.8642   -1.6587   -1.4863 O   0  0  0  0  0  0  0  0  0  0  0  0
   -0.4120    3.5137   -0.0460 C   0  0  0  0  0  0  0  0  0  0  0  0
    0.1414    4.7500   -0.4092 O   0  0  0  0  0  0  0  0  0  0  0  0
    0.9235    5.5533    0.4337 C   0  0  0  0  0  0  0  0  0  0  0  0
    0.8734    5.4354    1.8508 C   0  0  0  0  0  0  0  0  0  0  0  0
    1.6662    6.2179    2.6430 N   0  0  0  0  0  0  0  0  0  0  0  0
    2.4963    7.1167    2.0596 C   0  0  0  0  0  0  0  0  0  0  0  0
    3.3401    7.9441    2.6931 N   0  0  0  0  0  0  0  0  0  0  0  0
    3.9593    8.6436    1.7131 C   0  0  0  0  0  0  0  0  0  0  0  0
    3.4999    8.2527    0.4565 C   0  0  0  0  0  0  0  0  0  0  0  0
    2.5634    7.2744    0.7071 C   0  0  0  0  0  0  0  0  0  0  0  0
    1.7781    6.5093   -0.1462 C   0  0  0  0  0  0  0  0  0  0  0  0
   -1.7796    3.3172   -0.2687 C   0  0  0  0  0  0  0  0  0  0  0  0
   -6.3840   -2.4334   -0.4509 C   0  0  0  0  0  0  0  0  0  0  0  0
   -6.5745   -3.6741    0.3867 C   0  0  0  0  0  0  0  0  0  0  0  0
   -5.1019   -2.2467   -1.1644 C   0  0  0  0  0  0  0  0  0  0  0  0
   -3.9105   -2.1090   -0.4356 C   0  0  0  0  0  0  0  0  0  0  0  0
   -2.7013   -1.8867   -1.1007 C   0  0  0  0  0  0  0  0  0  0  0  0
   -2.6734   -1.8041   -2.4963 C   0  0  0  0  0  0  0  0  0  0  0  0
   -1.1581   -1.5016   -3.3258 Cl  0  0  0  0  0  0  0  0  0  0  0  0
   -3.8546   -1.9631   -3.2288 C   0  0  0  0  0  0  0  0  0  0  0  0
   -5.0648   -2.1906   -2.5666 C   0  0  0  0  0  0  0  0  0  0  0  0
   -9.2742   -5.7374    1.2256 H   0  0  0  0  0  0  0  0  0  0  0  0
   -8.3458   -4.6452    2.3159 H   0  0  0  0  0  0  0  0  0  0  0  0
   -7.5090   -6.0015    1.4736 H   0  0  0  0  0  0  0  0  0  0  0  0
   -7.7294   -4.5078   -1.9914 H   0  0  0  0  0  0  0  0  0  0  0  0
   -8.9801   -5.5979   -1.2869 H   0  0  0  0  0  0  0  0  0  0  0  0
   -7.2328   -5.9577   -1.0460 H   0  0  0  0  0  0  0  0  0  0  0  0
   -9.9600   -3.4055    0.7541 H   0  0  0  0  0  0  0  0  0  0  0  0
   -9.5468   -3.1723   -0.9531 H   0  0  0  0  0  0  0  0  0  0  0  0
   -9.4043   -1.0389    0.1420 H   0  0  0  0  0  0  0  0  0  0  0  0
   -8.3599   -1.6862    1.4505 H   0  0  0  0  0  0  0  0  0  0  0  0
   -8.1118    0.4790   -0.9937 H   0  0  0  0  0  0  0  0  0  0  0  0
   -7.2414   -0.4077   -2.2708 H   0  0  0  0  0  0  0  0  0  0  0  0
   -6.7006    2.1289    0.4011 H   0  0  0  0  0  0  0  0  0  0  0  0
   -6.6017    0.5403    1.2436 H   0  0  0  0  0  0  0  0  0  0  0  0
   -4.7350    2.3147    1.7607 H   0  0  0  0  0  0  0  0  0  0  0  0
   -4.2881    0.5952    1.4643 H   0  0  0  0  0  0  0  0  0  0  0  0
   -3.6361    2.4111   -2.1868 H   0  0  0  0  0  0  0  0  0  0  0  0
   -4.7927    3.4187   -1.2540 H   0  0  0  0  0  0  0  0  0  0  0  0
   -5.2314    0.8954   -2.7423 H   0  0  0  0  0  0  0  0  0  0  0  0
   -6.4278    2.1051   -2.1670 H   0  0  0  0  0  0  0  0  0  0  0  0
   -2.1048    0.1906    1.0426 H   0  0  0  0  0  0  0  0  0  0  0  0
    0.2897    0.4866    1.3810 H   0  0  0  0  0  0  0  0  0  0  0  0
    2.2007    3.4071   -1.2879 H   0  0  0  0  0  0  0  0  0  0  0  0
    6.7102    2.8781    1.3445 H   0  0  0  0  0  0  0  0  0  0  0  0
    7.9501    0.7979    1.6149 H   0  0  0  0  0  0  0  0  0  0  0  0
    6.8080   -2.5125    0.4130 H   0  0  0  0  0  0  0  0  0  0  0  0
    8.8195   -1.3283    2.0372 H   0  0  0  0  0  0  0  0  0  0  0  0
    9.3499   -1.0209    0.3460 H   0  0  0  0  0  0  0  0  0  0  0  0
   10.4080   -3.0224    1.1883 H   0  0  0  0  0  0  0  0  0  0  0  0
    8.2419   -3.7675   -0.8657 H   0  0  0  0  0  0  0  0  0  0  0  0
    9.8434   -3.0360   -1.2098 H   0  0  0  0  0  0  0  0  0  0  0  0
   10.9080   -5.0612   -1.0193 H   0  0  0  0  0  0  0  0  0  0  0  0
    9.2895   -5.7958   -1.1686 H   0  0  0  0  0  0  0  0  0  0  0  0
    8.9854   -6.1808    2.4229 H   0  0  0  0  0  0  0  0  0  0  0  0
    8.0155   -5.9262    0.9454 H   0  0  0  0  0  0  0  0  0  0  0  0
    9.1508   -3.9152    2.9268 H   0  0  0  0  0  0  0  0  0  0  0  0
    7.5989   -3.9036    2.0387 H   0  0  0  0  0  0  0  0  0  0  0  0
    3.9130    0.9173   -1.2553 H   0  0  0  0  0  0  0  0  0  0  0  0
    0.2060    4.7246    2.3185 H   0  0  0  0  0  0  0  0  0  0  0  0
    3.4913    8.0300    3.7226 H   0  0  0  0  0  0  0  0  0  0  0  0
    4.7100    9.4010    1.8961 H   0  0  0  0  0  0  0  0  0  0  0  0
    3.8145    8.6334   -0.5061 H   0  0  0  0  0  0  0  0  0  0  0  0
    1.8393    6.6286   -1.2204 H   0  0  0  0  0  0  0  0  0  0  0  0
   -2.3569    4.1142   -0.7200 H   0  0  0  0  0  0  0  0  0  0  0  0
   -5.7855   -4.4249    0.1576 H   0  0  0  0  0  0  0  0  0  0  0  0
   -6.4334   -3.3816    1.4510 H   0  0  0  0  0  0  0  0  0  0  0  0
   -3.9225   -2.1521    0.6466 H   0  0  0  0  0  0  0  0  0  0  0  0
   -1.7878   -1.7733   -0.5313 H   0  0  0  0  0  0  0  0  0  0  0  0
   -3.8367   -1.9077   -4.3097 H   0  0  0  0  0  0  0  0  0  0  0  0
   -5.9721   -2.3157   -3.1443 H   0  0  0  0  0  0  0  0  0  0  0  0
  1  2  1  0
  2  3  1  0
  2  4  1  0
  4  5  1  0
  5  6  1  0
  6  7  1  0
  7  8  1  0
  8  9  1  0
  9 10  1  0
 10 11  1  0
 11 12  1  0
 12 13  1  0
 11 14  1  0
 14 15  2  0
 15 16  1  0
 16 17  2  0
 17 18  1  0
 18 19  2  0
 18 20  1  0
 20 21  1  0
 21 22  2  0
 21 23  2  0
 21 24  1  0
 24 25  2  0
 25 26  1  0
 26 27  2  0
 27 28  1  0
 28 29  1  0
 29 30  1  0
 30 31  1  0
 31 32  1  0
 32 33  1  0
 33 34  1  0
 34 35  1  0
 27 36  1  0
 36 37  2  0
 36 38  1  0
 38 39  1  0
 38 40  2  0
 17 41  1  0
 41 42  1  0
 42 43  1  0
 43 44  2  0
 44 45  1  0
 45 46  2  0
 46 47  1  0
 47 48  1  0
 48 49  2  0
 49 50  1  0
 50 51  2  0
 41 52  2  0
  6 53  2  0
 53 54  1  0
 53 55  1  0
 55 56  2  0
 56 57  1  0
 57 58  2  0
 58 59  1  0
 58 60  1  0
 60 61  2  0
 54  2  1  0
 61 55  1  0
 13  8  1  0
 52 14  1  0
 37 24  1  0
 51 43  1  0
 35 30  1  0
 50 46  1  0
  1 62  1  0
  1 63  1  0
  1 64  1  0
  3 65  1  0
  3 66  1  0
  3 67  1  0
  4 68  1  0
  4 69  1  0
  5 70  1  0
  5 71  1  0
  7 72  1  0
  7 73  1  0
  9 74  1  0
  9 75  1  0
 10 76  1  0
 10 77  1  0
 12 78  1  0
 12 79  1  0
 13 80  1  0
 13 81  1  0
 15 82  1  0
 16 83  1  0
 20 84  1  0
 25 85  1  0
 26 86  1  0
 28 87  1  0
 29 88  1  0
 29 89  1  0
 30 90  1  0
 31 91  1  0
 31 92  1  0
 32 93  1  0
 32 94  1  0
 34 95  1  0
 34 96  1  0
 35 97  1  0
 35 98  1  0
 37 99  1  0
 44100  1  0
 47101  1  0
 48102  1  0
 49103  1  0
 51104  1  0
 52105  1  0
 54106  1  0
 54107  1  0
 56108  1  0
 57109  1  0
 60110  1  0
 61111  1  0
M  CHG  2  38   1  39  -1
M  END
$$$$
