
     RDKit          3D

119126  0  0  0  0  0  0  0  0999 V2000
   -2.8086    1.7067    0.2685 C   0  0  1  0  0  0  0  0  0  0  0  0
   -3.5586    2.7905    1.0636 C   0  0  0  0  0  0  0  0  0  0  0  0
   -5.0761    2.6783    0.9175 C   0  0  0  0  0  0  0  0  0  0  0  0
   -5.6217    1.2661    1.2731 C   0  0  2  0  0  0  0  0  0  0  0  0
   -4.8287    0.1223    0.5571 C   0  0  2  0  0  0  0  0  0  0  0  0
   -5.3421   -1.2964    0.9545 C   0  0  0  0  0  0  0  0  0  0  0  0
   -6.6617   -1.3094    1.7485 C   0  0  1  0  0  0  0  0  0  0  0  0
   -6.3953   -1.0106    3.0986 O   0  0  0  0  0  0  0  0  0  0  0  0
   -7.7316   -0.3245    1.1844 C   0  0  2  0  0  0  0  0  0  0  0  0
   -8.9718   -0.3816    2.1334 C   0  0  0  0  0  0  0  0  0  0  0  0
   -8.1675   -0.7158   -0.2654 C   0  0  2  0  0  0  0  0  0  0  0  0
   -8.6176    0.5899   -0.8937 C   0  0  0  0  0  0  0  0  0  0  0  0
   -7.6042    1.5990   -0.3992 C   0  0  0  0  0  0  0  0  0  0  0  0
   -7.1825    1.1593    1.0393 C   0  0  2  0  0  0  0  0  0  0  0  0
   -7.8237    1.9886    1.9902 O   0  0  0  0  0  0  0  0  0  0  0  0
   -9.1972   -1.8253   -0.3834 C   0  0  0  0  0  0  0  0  0  0  0  0
   -8.8959   -3.1177   -0.3061 C   0  0  0  0  0  0  0  0  0  0  0  0
  -10.1235   -3.8458   -0.5052 C   0  0  0  0  0  0  0  0  0  0  0  0
  -10.2394   -5.0987   -0.4962 O   0  0  0  0  0  0  0  0  0  0  0  0
  -11.1715   -2.9734   -0.7150 O   0  0  0  0  0  0  0  0  0  0  0  0
  -10.6709   -1.6424   -0.6712 C   0  0  0  0  0  0  0  0  0  0  0  0
   -3.2561    0.2668    0.6924 C   0  0  2  0  0  0  0  0  0  0  0  0
   -2.7830    0.0129    2.1576 C   0  0  0  0  0  0  0  0  0  0  0  0
   -2.5075   -0.7714   -0.2067 C   0  0  0  0  0  0  0  0  0  0  0  0
   -2.6229   -0.4923   -1.7125 C   0  0  0  0  0  0  0  0  0  0  0  0
   -2.1256    0.9141   -2.0634 C   0  0  1  0  0  0  0  0  0  0  0  0
   -2.9230    1.9534   -1.2581 C   0  0  0  0  0  0  0  0  0  0  0  0
   -0.7422    1.0093   -1.7620 O   0  0  0  0  0  0  0  0  0  0  0  0
   -0.0790    1.9672   -2.5770 C   0  0  1  0  0  0  0  0  0  0  0  0
    0.8720    2.8230   -1.7141 C   0  0  0  0  0  0  0  0  0  0  0  0
    2.2879    2.2263   -1.6024 C   0  0  2  0  0  0  0  0  0  0  0  0
    3.1387    2.8110   -2.5568 O   0  0  0  0  0  0  0  0  0  0  0  0
    2.2439    0.7052   -1.8186 C   0  0  2  0  0  0  0  0  0  0  0  0
    3.5464    0.1412   -1.7821 O   0  0  0  0  0  0  0  0  0  0  0  0
    4.0617    0.0316   -0.4627 C   0  0  1  0  0  0  0  0  0  0  0  0
    4.7159   -1.3559   -0.2801 C   0  0  0  0  0  0  0  0  0  0  0  0
    5.9424   -1.2636    0.6212 C   0  0  2  0  0  0  0  0  0  0  0  0
    5.5517   -0.8146    1.8957 O   0  0  0  0  0  0  0  0  0  0  0  0
    6.9676   -0.3001   -0.0143 C   0  0  2  0  0  0  0  0  0  0  0  0
    7.8894    0.1462    0.9721 O   0  0  0  0  0  0  0  0  0  0  0  0
    9.0351   -0.6846    1.0477 C   0  0  1  0  0  0  0  0  0  0  0  0
   10.0719   -0.2418   -0.0129 C   0  0  0  0  0  0  0  0  0  0  0  0
   11.5133   -0.3898    0.5147 C   0  0  2  0  0  0  0  0  0  0  0  0
   12.4461   -0.4292   -0.5373 O   0  0  0  0  0  0  0  0  0  0  0  0
   11.6423   -1.6177    1.4356 C   0  0  2  0  0  0  0  0  0  0  0  0
   11.4458   -2.7909    0.6866 O   0  0  0  0  0  0  0  0  0  0  0  0
   10.5805   -1.5379    2.5815 C   0  0  1  0  0  0  0  0  0  0  0  0
   11.2524   -1.2243    3.9188 C   0  0  0  0  0  0  0  0  0  0  0  0
    9.5873   -0.5473    2.3443 O   0  0  0  0  0  0  0  0  0  0  0  0
    6.2683    0.9394   -0.6511 C   0  0  1  0  0  0  0  0  0  0  0  0
    6.3598    0.9595   -2.1868 C   0  0  0  0  0  0  0  0  0  0  0  0
    4.9356    1.1242   -0.1903 O   0  0  0  0  0  0  0  0  0  0  0  0
    1.6183    0.4093   -3.2105 C   0  0  1  0  0  0  0  0  0  0  0  0
    1.1038   -1.0301   -3.3010 C   0  0  0  0  0  0  0  0  0  0  0  0
    0.6102    1.3256   -3.6375 O   0  0  0  0  0  0  0  0  0  0  0  0
   -1.7303    1.8294    0.5196 H   0  0  0  0  0  0  0  0  0  0  0  0
   -3.2875    2.7320    2.1390 H   0  0  0  0  0  0  0  0  0  0  0  0
   -3.2355    3.7970    0.7180 H   0  0  0  0  0  0  0  0  0  0  0  0
   -5.3534    2.9830   -0.1097 H   0  0  0  0  0  0  0  0  0  0  0  0
   -5.5211    3.4318    1.6004 H   0  0  0  0  0  0  0  0  0  0  0  0
   -5.4614    1.1560    2.3652 H   0  0  0  0  0  0  0  0  0  0  0  0
   -5.0707    0.2271   -0.5168 H   0  0  0  0  0  0  0  0  0  0  0  0
   -4.6026   -1.8604    1.5508 H   0  0  0  0  0  0  0  0  0  0  0  0
   -5.4579   -1.9099    0.0351 H   0  0  0  0  0  0  0  0  0  0  0  0
   -7.0772   -2.3416    1.6963 H   0  0  0  0  0  0  0  0  0  0  0  0
   -6.0063   -1.8267    3.5096 H   0  0  0  0  0  0  0  0  0  0  0  0
   -9.3500   -1.4208    2.2389 H   0  0  0  0  0  0  0  0  0  0  0  0
   -9.7984    0.2551    1.7544 H   0  0  0  0  0  0  0  0  0  0  0  0
   -8.7153   -0.0276    3.1545 H   0  0  0  0  0  0  0  0  0  0  0  0
   -7.2872   -1.0364   -0.8615 H   0  0  0  0  0  0  0  0  0  0  0  0
   -8.6211    0.5294   -2.0045 H   0  0  0  0  0  0  0  0  0  0  0  0
   -9.6291    0.8857   -0.5394 H   0  0  0  0  0  0  0  0  0  0  0  0
   -8.0369    2.6223   -0.4331 H   0  0  0  0  0  0  0  0  0  0  0  0
   -6.7513    1.5767   -1.1082 H   0  0  0  0  0  0  0  0  0  0  0  0
   -7.6842    2.9390    1.7462 H   0  0  0  0  0  0  0  0  0  0  0  0
   -7.9121   -3.5406   -0.1523 H   0  0  0  0  0  0  0  0  0  0  0  0
  -10.8225   -1.1495   -1.6546 H   0  0  0  0  0  0  0  0  0  0  0  0
  -11.1692   -1.0743    0.1414 H   0  0  0  0  0  0  0  0  0  0  0  0
   -1.7307    0.3434    2.2930 H   0  0  0  0  0  0  0  0  0  0  0  0
   -3.3978    0.5504    2.9040 H   0  0  0  0  0  0  0  0  0  0  0  0
   -2.7957   -1.0632    2.4234 H   0  0  0  0  0  0  0  0  0  0  0  0
   -2.8694   -1.8023   -0.0119 H   0  0  0  0  0  0  0  0  0  0  0  0
   -1.4251   -0.7747    0.0546 H   0  0  0  0  0  0  0  0  0  0  0  0
   -2.0202   -1.2426   -2.2665 H   0  0  0  0  0  0  0  0  0  0  0  0
   -3.6721   -0.6217   -2.0519 H   0  0  0  0  0  0  0  0  0  0  0  0
   -2.3231    1.0569   -3.1529 H   0  0  0  0  0  0  0  0  0  0  0  0
   -3.9798    1.9237   -1.5936 H   0  0  0  0  0  0  0  0  0  0  0  0
   -2.5439    2.9708   -1.4940 H   0  0  0  0  0  0  0  0  0  0  0  0
   -0.7892    2.6921   -3.0407 H   0  0  0  0  0  0  0  0  0  0  0  0
    0.4349    2.9302   -0.6967 H   0  0  0  0  0  0  0  0  0  0  0  0
    0.9361    3.8498   -2.1378 H   0  0  0  0  0  0  0  0  0  0  0  0
    2.6755    2.4350   -0.5783 H   0  0  0  0  0  0  0  0  0  0  0  0
    3.4057    3.6981   -2.1995 H   0  0  0  0  0  0  0  0  0  0  0  0
    1.5876    0.2462   -1.0415 H   0  0  0  0  0  0  0  0  0  0  0  0
    3.2636    0.0802    0.3148 H   0  0  0  0  0  0  0  0  0  0  0  0
    5.0237   -1.7709   -1.2655 H   0  0  0  0  0  0  0  0  0  0  0  0
    3.9809   -2.0679    0.1560 H   0  0  0  0  0  0  0  0  0  0  0  0
    6.3894   -2.2828    0.6988 H   0  0  0  0  0  0  0  0  0  0  0  0
    6.2302   -1.1463    2.5403 H   0  0  0  0  0  0  0  0  0  0  0  0
    7.4822   -0.8560   -0.8359 H   0  0  0  0  0  0  0  0  0  0  0  0
    8.7601   -1.7570    0.8800 H   0  0  0  0  0  0  0  0  0  0  0  0
    9.9061    0.8212   -0.2958 H   0  0  0  0  0  0  0  0  0  0  0  0
    9.9308   -0.8569   -0.9282 H   0  0  0  0  0  0  0  0  0  0  0  0
   11.7446    0.5106    1.1267 H   0  0  0  0  0  0  0  0  0  0  0  0
   12.2309   -1.2113   -1.1091 H   0  0  0  0  0  0  0  0  0  0  0  0
   12.6800   -1.6222    1.8469 H   0  0  0  0  0  0  0  0  0  0  0  0
   11.7983   -3.5408    1.2337 H   0  0  0  0  0  0  0  0  0  0  0  0
   10.0809   -2.5267    2.7045 H   0  0  0  0  0  0  0  0  0  0  0  0
   10.4881   -1.1784    4.7236 H   0  0  0  0  0  0  0  0  0  0  0  0
   11.7754   -0.2453    3.8672 H   0  0  0  0  0  0  0  0  0  0  0  0
   11.9859   -2.0178    4.1774 H   0  0  0  0  0  0  0  0  0  0  0  0
    6.8291    1.8430   -0.3244 H   0  0  0  0  0  0  0  0  0  0  0  0
    5.7924    1.8248   -2.5894 H   0  0  0  0  0  0  0  0  0  0  0  0
    7.4213    1.0626   -2.4981 H   0  0  0  0  0  0  0  0  0  0  0  0
    5.9608    0.0245   -2.6303 H   0  0  0  0  0  0  0  0  0  0  0  0
    2.4374    0.4929   -3.9591 H   0  0  0  0  0  0  0  0  0  0  0  0
    0.3435   -1.2300   -2.5202 H   0  0  0  0  0  0  0  0  0  0  0  0
    1.9442   -1.7436   -3.1635 H   0  0  0  0  0  0  0  0  0  0  0  0
    0.6499   -1.2082   -4.2988 H   0  0  0  0  0  0  0  0  0  0  0  0
  1  2  1  0
  2  3  1  0
  3  4  1  0
  4  5  1  0
  5  6  1  0
  6  7  1  0
  7  8  1  0
  7  9  1  0
  9 10  1  1
  9 11  1  0
 11 12  1  0
 12 13  1  0
 13 14  1  0
 14 15  1  1
 11 16  1  0
 16 17  2  0
 17 18  1  0
 18 19  2  0
 18 20  1  0
 20 21  1  0
  5 22  1  0
 22 23  1  1
 22 24  1  0
 24 25  1  0
 25 26  1  0
 26 27  1  0
 26 28  1  0
 28 29  1  0
 29 30  1  0
 30 31  1  0
 31 32  1  0
 31 33  1  0
 33 34  1  0
 34 35  1  0
 35 36  1  0
 36 37  1  0
 37 38  1  0
 37 39  1  0
 39 40  1  0
 40 41  1  0
 41 42  1  0
 42 43  1  0
 43 44  1  0
 43 45  1  0
 45 46  1  0
 45 47  1  0
 47 48  1  0
 47 49  1  0
 39 50  1  0
 50 51  1  0
 50 52  1  0
 33 53  1  0
 53 54  1  0
 53 55  1  0
 22  1  1  0
 55 29  1  0
 27  1  1  0
 52 35  1  0
 14  4  1  0
 21 16  1  0
 49 41  1  0
 14  9  1  0
  1 56  1  1
  2 57  1  0
  2 58  1  0
  3 59  1  0
  3 60  1  0
  4 61  1  1
  5 62  1  6
  6 63  1  0
  6 64  1  0
  7 65  1  1
  8 66  1  0
 10 67  1  0
 10 68  1  0
 10 69  1  0
 11 70  1  6
 12 71  1  0
 12 72  1  0
 13 73  1  0
 13 74  1  0
 15 75  1  0
 17 76  1  0
 21 77  1  0
 21 78  1  0
 23 79  1  0
 23 80  1  0
 23 81  1  0
 24 82  1  0
 24 83  1  0
 25 84  1  0
 25 85  1  0
 26 86  1  6
 27 87  1  0
 27 88  1  0
 29 89  1  6
 30 90  1  0
 30 91  1  0
 31 92  1  1
 32 93  1  0
 33 94  1  1
 35 95  1  1
 36 96  1  0
 36 97  1  0
 37 98  1  1
 38 99  1  0
 39100  1  6
 41101  1  6
 42102  1  0
 42103  1  0
 43104  1  1
 44105  1  0
 45106  1  1
 46107  1  0
 47108  1  1
 48109  1  0
 48110  1  0
 48111  1  0
 50112  1  1
 51113  1  0
 51114  1  0
 51115  1  0
 53116  1  6
 54117  1  0
 54118  1  0
 54119  1  0
M  END
$$$$
