
     RDKit          3D

 22 21  0  0  0  0  0  0  0  0999 V2000
    1.1850   -0.1359    0.2482 C   0  0  2  0  0  0  0  0  0  0  0  0
   -0.1352   -0.9290    0.2767 C   0  0  0  0  0  0  0  0  0  0  0  0
   -1.3531   -0.0133    0.1307 C   0  0  0  0  0  0  0  0  0  0  0  0
   -2.8834   -1.0040    0.2067 S   0  0  0  0  0  0  0  0  0  0  0  0
   -3.9946    0.4240    0.0052 C   0  0  0  0  0  0  0  0  0  0  0  0
    1.3980    0.4848   -1.0635 N   0  0  0  0  0  0  0  0  0  0  0  0
    2.2985    1.5811   -1.2536 C   0  0  0  0  0  0  0  0  0  0  0  0
    2.9250    2.0798   -0.2812 O   0  0  0  0  0  0  0  0  0  0  0  0
    2.3356   -1.0455    0.5692 C   0  0  0  0  0  0  0  0  0  0  0  0
    2.9774   -0.9413    1.7993 O   0  0  0  0  0  0  0  0  0  0  0  0
    2.7082   -1.9173   -0.2619 O   0  0  0  0  0  0  0  0  0  0  0  0
    1.1296    0.6578    1.0267 H   0  0  0  0  0  0  0  0  0  0  0  0
   -0.1401   -1.6853   -0.5394 H   0  0  0  0  0  0  0  0  0  0  0  0
   -0.2148   -1.4689    1.2466 H   0  0  0  0  0  0  0  0  0  0  0  0
   -1.3597    0.7334    0.9539 H   0  0  0  0  0  0  0  0  0  0  0  0
   -1.3134    0.5190   -0.8434 H   0  0  0  0  0  0  0  0  0  0  0  0
   -5.0456    0.0695    0.0191 H   0  0  0  0  0  0  0  0  0  0  0  0
   -3.8474    1.1430    0.8379 H   0  0  0  0  0  0  0  0  0  0  0  0
   -3.7982    0.9270   -0.9645 H   0  0  0  0  0  0  0  0  0  0  0  0
    0.9330    0.0856   -1.9102 H   0  0  0  0  0  0  0  0  0  0  0  0
    2.4452    1.9879   -2.2453 H   0  0  0  0  0  0  0  0  0  0  0  0
    3.7500   -1.5523    2.0355 H   0  0  0  0  0  0  0  0  0  0  0  0
  1  2  1  0
  2  3  1  0
  3  4  1  0
  4  5  1  0
  1  6  1  0
  6  7  1  0
  7  8  2  0
  1  9  1  0
  9 10  1  0
  9 11  2  0
  1 12  1  1
  2 13  1  0
  2 14  1  0
  3 15  1  0
  3 16  1  0
  5 17  1  0
  5 18  1  0
  5 19  1  0
  6 20  1  0
  7 21  1  0
 10 22  1  0
M  END
$$$$
