
     RDKit          3D

 28 29  0  0  0  0  0  0  0  0999 V2000
    2.9298   -0.1376    0.2081 C   0  0  2  0  0  0  0  0  0  0  0  0
    1.8168   -1.0930    0.0854 N   0  0  0  0  0  0  0  0  0  0  0  0
    0.4434   -0.6773    0.1719 C   0  0  0  0  0  0  0  0  0  0  0  0
   -0.5573   -1.6187    0.4443 C   0  0  0  0  0  0  0  0  0  0  0  0
   -1.8990   -1.2288    0.5368 C   0  0  0  0  0  0  0  0  0  0  0  0
   -3.0974   -2.4718    0.8801 Cl  0  0  0  0  0  0  0  0  0  0  0  0
   -2.2528    0.1250    0.3512 C   0  0  0  0  0  0  0  0  0  0  0  0
   -1.2495    1.0608    0.0562 C   0  0  0  0  0  0  0  0  0  0  0  0
    0.0879    0.6619   -0.0357 C   0  0  0  0  0  0  0  0  0  0  0  0
    1.3338    1.8182   -0.4573 S   0  0  0  0  0  6  0  0  0  0  0  0
    1.5579    2.7691    0.6851 O   0  0  0  0  0  0  0  0  0  0  0  0
    0.9311    2.5820   -1.6870 O   0  0  0  0  0  0  0  0  0  0  0  0
    2.7899    0.9347   -0.7864 N   0  0  0  0  0  0  0  0  0  0  0  0
   -3.9342    0.6658    0.4519 S   0  0  0  0  0  6  0  0  0  0  0  0
   -4.7978    0.1442   -0.9527 N   0  0  0  0  0  0  0  0  0  0  0  0
   -4.5803    0.1054    1.6880 O   0  0  0  0  0  0  0  0  0  0  0  0
   -3.9876    2.1663    0.5268 O   0  0  0  0  0  0  0  0  0  0  0  0
    4.2894   -0.8423    0.0331 C   0  0  0  0  0  0  0  0  0  0  0  0
    4.5535   -2.0513    1.3193 Cl  0  0  0  0  0  0  0  0  0  0  0  0
    4.4189   -1.6365   -1.5617 Cl  0  0  0  0  0  0  0  0  0  0  0  0
    2.9098    0.3024    1.2320 H   0  0  0  0  0  0  0  0  0  0  0  0
    2.0174   -2.1164    0.0093 H   0  0  0  0  0  0  0  0  0  0  0  0
   -0.2913   -2.6581    0.5925 H   0  0  0  0  0  0  0  0  0  0  0  0
   -1.5042    2.0993   -0.1122 H   0  0  0  0  0  0  0  0  0  0  0  0
    3.5795    1.6104   -0.6645 H   0  0  0  0  0  0  0  0  0  0  0  0
   -4.8314   -0.8990   -0.9276 H   0  0  0  0  0  0  0  0  0  0  0  0
   -5.7819    0.4784   -0.8476 H   0  0  0  0  0  0  0  0  0  0  0  0
    5.1055   -0.0930    0.1116 H   0  0  0  0  0  0  0  0  0  0  0  0
  1  2  1  0
  2  3  1  0
  3  4  2  0
  4  5  1  0
  5  6  1  0
  5  7  2  0
  7  8  1  0
  8  9  2  0
  9 10  1  0
 10 11  2  0
 10 12  2  0
 10 13  1  0
  7 14  1  0
 14 15  1  0
 14 16  2  0
 14 17  2  0
  1 18  1  0
 18 19  1  0
 18 20  1  0
 13  1  1  0
  9  3  1  0
  1 21  1  1
  2 22  1  0
  4 23  1  0
  8 24  1  0
 13 25  1  0
 15 26  1  0
 15 27  1  0
 18 28  1  0
M  END
$$$$
