
     RDKit          3D

 42 45  0  0  0  0  0  0  0  0999 V2000
    5.7282    2.7146   -0.1940 O   0  0  0  0  0  0  0  0  0  0  0  0
    5.2979    1.4124    0.0480 C   0  0  0  0  0  0  0  0  0  0  0  0
    6.1606    0.5121    0.2369 O   0  0  0  0  0  0  0  0  0  0  0  0
    3.8468    1.0808    0.0861 C   0  0  0  0  0  0  0  0  0  0  0  0
    3.4443   -0.2331    0.3696 C   0  0  0  0  0  0  0  0  0  0  0  0
    2.1251   -0.5952    0.3832 N   0  0  0  0  0  0  0  0  0  0  0  0
    1.8009   -2.0062    0.6704 C   0  0  0  0  0  0  0  0  0  0  0  0
    1.1065   -2.7312   -0.4789 C   0  0  0  0  0  0  0  0  0  0  0  0
    2.5577   -3.0344   -0.1700 C   0  0  0  0  0  0  0  0  0  0  0  0
    1.1400    0.3573    0.2287 C   0  0  0  0  0  0  0  0  0  0  0  0
   -0.2307    0.0395    0.3716 C   0  0  0  0  0  0  0  0  0  0  0  0
   -1.2264    1.0080    0.1817 C   0  0  0  0  0  0  0  0  0  0  0  0
   -2.6135    0.6451    0.3079 N   0  0  0  0  0  0  0  0  0  0  0  0
   -3.5385    0.8713   -0.8089 C   0  0  0  0  0  0  0  0  0  0  0  0
   -4.7513   -0.0643   -0.7010 C   0  0  0  0  0  0  0  0  0  0  0  0
   -4.3307   -1.4003   -0.2573 N   0  0  0  0  0  0  0  0  0  0  0  0
   -3.7626   -1.3936    1.1068 C   0  0  0  0  0  0  0  0  0  0  0  0
   -3.0992   -0.0576    1.4997 C   0  0  0  0  0  0  0  0  0  0  0  0
   -0.8583    2.3184   -0.1480 C   0  0  0  0  0  0  0  0  0  0  0  0
   -1.8008    3.2797   -0.3141 F   0  0  0  0  0  0  0  0  0  0  0  0
    0.4879    2.6608   -0.2661 C   0  0  0  0  0  0  0  0  0  0  0  0
    1.4960    1.6971   -0.0707 C   0  0  0  0  0  0  0  0  0  0  0  0
    2.8552    2.0489   -0.1534 C   0  0  0  0  0  0  0  0  0  0  0  0
    3.1810    3.2364   -0.4317 O   0  0  0  0  0  0  0  0  0  0  0  0
    6.7153    2.9408   -0.2197 H   0  0  0  0  0  0  0  0  0  0  0  0
    4.2025   -0.9808    0.5736 H   0  0  0  0  0  0  0  0  0  0  0  0
    1.5134   -2.2924    1.7044 H   0  0  0  0  0  0  0  0  0  0  0  0
    0.3974   -3.5226   -0.1569 H   0  0  0  0  0  0  0  0  0  0  0  0
    0.9573   -2.1338   -1.4040 H   0  0  0  0  0  0  0  0  0  0  0  0
    3.2507   -2.6461   -0.9465 H   0  0  0  0  0  0  0  0  0  0  0  0
    2.7092   -4.0170    0.3242 H   0  0  0  0  0  0  0  0  0  0  0  0
   -0.5459   -0.9617    0.6274 H   0  0  0  0  0  0  0  0  0  0  0  0
   -3.8812    1.9272   -0.8137 H   0  0  0  0  0  0  0  0  0  0  0  0
   -3.0156    0.6622   -1.7683 H   0  0  0  0  0  0  0  0  0  0  0  0
   -5.2490   -0.1431   -1.6914 H   0  0  0  0  0  0  0  0  0  0  0  0
   -5.4944    0.3530    0.0143 H   0  0  0  0  0  0  0  0  0  0  0  0
   -3.6049   -1.7571   -0.9236 H   0  0  0  0  0  0  0  0  0  0  0  0
   -4.5701   -1.6249    1.8338 H   0  0  0  0  0  0  0  0  0  0  0  0
   -3.0090   -2.2080    1.1917 H   0  0  0  0  0  0  0  0  0  0  0  0
   -3.8499    0.5870    2.0065 H   0  0  0  0  0  0  0  0  0  0  0  0
   -2.2803   -0.2376    2.2300 H   0  0  0  0  0  0  0  0  0  0  0  0
    0.7383    3.6884   -0.5001 H   0  0  0  0  0  0  0  0  0  0  0  0
  1  2  1  0
  2  3  2  0
  2  4  1  0
  4  5  2  0
  5  6  1  0
  6  7  1  0
  7  8  1  0
  8  9  1  0
  6 10  1  0
 10 11  2  0
 11 12  1  0
 12 13  1  0
 13 14  1  0
 14 15  1  0
 15 16  1  0
 16 17  1  0
 17 18  1  0
 12 19  2  0
 19 20  1  0
 19 21  1  0
 21 22  2  0
 22 23  1  0
 23 24  2  0
 23  4  1  0
  9  7  1  0
 22 10  1  0
 18 13  1  0
  1 25  1  0
  5 26  1  0
  7 27  1  0
  8 28  1  0
  8 29  1  0
  9 30  1  0
  9 31  1  0
 11 32  1  0
 14 33  1  0
 14 34  1  0
 15 35  1  0
 15 36  1  0
 16 37  1  0
 17 38  1  0
 17 39  1  0
 18 40  1  0
 18 41  1  0
 21 42  1  0
M  END
$$$$
