
     RDKit          3D

 48 52  0  0  0  0  0  0  0  0999 V2000
   -6.1990   -3.1372    2.0749 N   0  0  0  0  0  0  0  0  0  0  0  0
   -5.1989   -2.5724    1.9335 C   0  0  0  0  0  0  0  0  0  0  0  0
   -3.9288   -1.8551    1.7535 C   0  0  0  0  0  0  0  0  0  0  0  0
   -4.1322   -0.3307    1.7814 C   0  0  0  0  0  0  0  0  0  0  0  0
   -2.7825    0.3533    1.8286 C   0  0  0  0  0  0  0  0  0  0  0  0
   -2.2334    0.9253    0.7536 C   0  0  0  0  0  0  0  0  0  0  0  0
   -2.9946    1.0160   -0.5151 C   0  0  0  0  0  0  0  0  0  0  0  0
   -4.4298    0.6972   -0.4776 C   0  0  0  0  0  0  0  0  0  0  0  0
   -4.9707    0.1226    0.6004 C   0  0  0  0  0  0  0  0  0  0  0  0
   -2.4757    1.4188   -1.6421 N   0  0  0  0  0  0  0  0  0  0  0  0
   -1.0957    1.6760   -1.9406 C   0  0  0  0  0  0  0  0  0  0  0  0
   -0.7823    2.4662   -2.9963 N   0  0  0  0  0  0  0  0  0  0  0  0
    0.5088    2.6768   -3.3595 C   0  0  0  0  0  0  0  0  0  0  0  0
    0.7920    3.5027   -4.4533 C   0  0  0  0  0  0  0  0  0  0  0  0
    2.1135    3.7099   -4.8518 C   0  0  0  0  0  0  0  0  0  0  0  0
    3.1574    3.0864   -4.1661 C   0  0  0  0  0  0  0  0  0  0  0  0
    2.8891    2.2582   -3.0717 C   0  0  0  0  0  0  0  0  0  0  0  0
    1.5604    2.0531   -2.6440 C   0  0  0  0  0  0  0  0  0  0  0  0
    1.2119    1.2279   -1.5483 C   0  0  0  0  0  0  0  0  0  0  0  0
    2.2041    0.5949   -0.7160 N   0  0  0  0  0  0  0  0  0  0  0  0
    1.8989   -0.4768    0.1894 C   0  0  0  0  0  0  0  0  0  0  0  0
    0.7196   -1.1273    0.2366 N   0  0  0  0  0  0  0  0  0  0  0  0
    0.8146   -2.0439    1.1853 N   0  0  0  0  0  0  0  0  0  0  0  0
    2.0390   -1.9948    1.7439 C   0  0  0  0  0  0  0  0  0  0  0  0
    2.7725   -0.9947    1.1241 C   0  0  0  0  0  0  0  0  0  0  0  0
    2.4696   -2.9112    2.8612 C   0  0  0  0  0  0  0  0  0  0  0  0
    3.9364   -3.3158    2.8682 C   0  0  0  0  0  0  0  0  0  0  0  0
    3.4189   -2.3115    3.8881 C   0  0  0  0  0  0  0  0  0  0  0  0
   -0.1037    1.0599   -1.2492 N   0  0  0  0  0  0  0  0  0  0  0  0
   -3.4704   -2.1648    0.7892 H   0  0  0  0  0  0  0  0  0  0  0  0
   -3.2459   -2.1600    2.5758 H   0  0  0  0  0  0  0  0  0  0  0  0
   -4.6748   -0.0549    2.7124 H   0  0  0  0  0  0  0  0  0  0  0  0
   -2.2152    0.3175    2.7509 H   0  0  0  0  0  0  0  0  0  0  0  0
   -1.2625    1.3861    0.8625 H   0  0  0  0  0  0  0  0  0  0  0  0
   -5.0562    0.9292   -1.3305 H   0  0  0  0  0  0  0  0  0  0  0  0
   -6.0298   -0.1047    0.5959 H   0  0  0  0  0  0  0  0  0  0  0  0
   -0.0120    3.9817   -4.9985 H   0  0  0  0  0  0  0  0  0  0  0  0
    2.3287    4.3480   -5.6992 H   0  0  0  0  0  0  0  0  0  0  0  0
    4.1794    3.2401   -4.4881 H   0  0  0  0  0  0  0  0  0  0  0  0
    3.7277    1.7772   -2.5921 H   0  0  0  0  0  0  0  0  0  0  0  0
    3.1749    0.9734   -0.6798 H   0  0  0  0  0  0  0  0  0  0  0  0
    0.0425   -2.6969    1.4457 H   0  0  0  0  0  0  0  0  0  0  0  0
    3.7891   -0.6813    1.3206 H   0  0  0  0  0  0  0  0  0  0  0  0
    1.7619   -3.6725    3.2531 H   0  0  0  0  0  0  0  0  0  0  0  0
    4.1334   -4.3228    3.2928 H   0  0  0  0  0  0  0  0  0  0  0  0
    4.5819   -2.8716    2.0815 H   0  0  0  0  0  0  0  0  0  0  0  0
    3.7559   -1.2688    3.7091 H   0  0  0  0  0  0  0  0  0  0  0  0
    3.3121   -2.7287    4.9117 H   0  0  0  0  0  0  0  0  0  0  0  0
  1  2  3  0
  2  3  1  0
  3  4  1  0
  4  5  1  0
  5  6  2  0
  6  7  1  0
  7  8  1  0
  8  9  2  0
  7 10  2  3
 10 11  1  0
 11 12  2  0
 12 13  1  0
 13 14  2  0
 14 15  1  0
 15 16  2  0
 16 17  1  0
 17 18  2  0
 18 19  1  0
 19 20  1  0
 20 21  1  0
 21 22  2  0
 22 23  1  0
 23 24  1  0
 24 25  2  0
 24 26  1  0
 26 27  1  0
 27 28  1  0
 19 29  2  0
  9  4  1  0
 29 11  1  0
 18 13  1  0
 25 21  1  0
 28 26  1  0
  3 30  1  0
  3 31  1  0
  4 32  1  0
  5 33  1  0
  6 34  1  0
  8 35  1  0
  9 36  1  0
 14 37  1  0
 15 38  1  0
 16 39  1  0
 17 40  1  0
 20 41  1  0
 23 42  1  0
 25 43  1  0
 26 44  1  0
 27 45  1  0
 27 46  1  0
 28 47  1  0
 28 48  1  0
M  END
$$$$
