
     RDKit          3D

 43 45  0  0  0  0  0  0  0  0999 V2000
    0.9483   -0.0150    0.5322 C   0  0  1  0  0  0  0  0  0  0  0  0
    1.0428    0.8471    1.8075 C   0  0  0  0  0  0  0  0  0  0  0  0
    2.0309    1.8533    1.7188 O   0  0  0  0  0  0  0  0  0  0  0  0
    3.5889    1.1928    1.8823 S   0  0  0  0  0  6  0  0  0  0  0  0
    3.6001    0.0334    2.8421 O   0  0  0  0  0  0  0  0  0  0  0  0
    4.4991    2.2643    2.4144 O   0  0  0  0  0  0  0  0  0  0  0  0
    4.1554    0.6777    0.3222 N   0  0  0  0  0  0  0  0  0  0  0  0
    5.5314    0.1905    0.4305 C   0  0  0  0  0  0  0  0  0  0  0  0
    5.9926   -0.3667   -0.9105 C   0  0  0  0  0  0  0  0  0  0  0  0
   -0.1273   -0.9210    0.6777 O   0  0  0  0  0  0  0  0  0  0  0  0
   -1.0505   -0.6723   -0.3592 C   0  0  1  0  0  0  0  0  0  0  0  0
   -2.4181   -0.7246    0.1593 N   0  0  0  0  0  0  0  0  0  0  0  0
   -2.8711   -0.3081    1.3712 C   0  0  0  0  0  0  0  0  0  0  0  0
   -4.2237   -0.3994    1.5027 N   0  0  0  0  0  0  0  0  0  0  0  0
   -4.6058   -0.8850    0.3063 C   0  0  0  0  0  0  0  0  0  0  0  0
   -5.8822   -1.1662   -0.1676 C   0  0  0  0  0  0  0  0  0  0  0  0
   -7.0433   -0.9809    0.6421 N   0  0  0  0  0  0  0  0  0  0  0  0
   -5.9942   -1.6257   -1.4500 N   0  0  0  0  0  0  0  0  0  0  0  0
   -4.8901   -1.8014   -2.2457 C   0  0  0  0  0  0  0  0  0  0  0  0
   -3.6397   -1.5190   -1.7698 N   0  0  0  0  0  0  0  0  0  0  0  0
   -3.5327   -1.0702   -0.4957 C   0  0  0  0  0  0  0  0  0  0  0  0
   -0.7549    0.6917   -0.9577 C   0  0  2  0  0  0  0  0  0  0  0  0
   -1.0980    0.7300   -2.3187 O   0  0  0  0  0  0  0  0  0  0  0  0
    0.7297    0.8287   -0.7295 C   0  0  2  0  0  0  0  0  0  0  0  0
    1.4570    0.2685   -1.7955 O   0  0  0  0  0  0  0  0  0  0  0  0
    1.8803   -0.6112    0.4371 H   0  0  0  0  0  0  0  0  0  0  0  0
    1.1807    0.2071    2.7057 H   0  0  0  0  0  0  0  0  0  0  0  0
    0.0655    1.3544    1.9543 H   0  0  0  0  0  0  0  0  0  0  0  0
    4.1531    1.5241   -0.2928 H   0  0  0  0  0  0  0  0  0  0  0  0
    5.5897   -0.6247    1.1844 H   0  0  0  0  0  0  0  0  0  0  0  0
    6.2136    1.0151    0.7360 H   0  0  0  0  0  0  0  0  0  0  0  0
    5.3241   -1.1945   -1.2294 H   0  0  0  0  0  0  0  0  0  0  0  0
    5.9795    0.4316   -1.6827 H   0  0  0  0  0  0  0  0  0  0  0  0
    7.0281   -0.7568   -0.8172 H   0  0  0  0  0  0  0  0  0  0  0  0
   -0.9173   -1.4636   -1.1319 H   0  0  0  0  0  0  0  0  0  0  0  0
   -2.2272    0.0741    2.1526 H   0  0  0  0  0  0  0  0  0  0  0  0
   -6.9651   -0.6289    1.6221 H   0  0  0  0  0  0  0  0  0  0  0  0
   -7.9899   -1.1980    0.2589 H   0  0  0  0  0  0  0  0  0  0  0  0
   -5.0099   -2.1640   -3.2573 H   0  0  0  0  0  0  0  0  0  0  0  0
   -1.2973    1.4869   -0.3922 H   0  0  0  0  0  0  0  0  0  0  0  0
   -1.0337    1.6808   -2.5964 H   0  0  0  0  0  0  0  0  0  0  0  0
    1.0113    1.8985   -0.5858 H   0  0  0  0  0  0  0  0  0  0  0  0
    1.5697    0.9838   -2.4747 H   0  0  0  0  0  0  0  0  0  0  0  0
  1  2  1  0
  2  3  1  0
  3  4  1  0
  4  5  2  0
  4  6  2  0
  4  7  1  0
  7  8  1  0
  8  9  1  0
  1 10  1  0
 10 11  1  0
 11 12  1  0
 12 13  1  0
 13 14  2  0
 14 15  1  0
 15 16  2  0
 16 17  1  0
 16 18  1  0
 18 19  2  0
 19 20  1  0
 20 21  2  0
 11 22  1  0
 22 23  1  0
 22 24  1  0
 24 25  1  0
 24  1  1  0
 21 12  1  0
 21 15  1  0
  1 26  1  6
  2 27  1  0
  2 28  1  0
  7 29  1  0
  8 30  1  0
  8 31  1  0
  9 32  1  0
  9 33  1  0
  9 34  1  0
 11 35  1  6
 13 36  1  0
 17 37  1  0
 17 38  1  0
 19 39  1  0
 22 40  1  1
 23 41  1  0
 24 42  1  1
 25 43  1  0
M  END
$$$$
