
     RDKit          3D

 48 48  0  0  0  0  0  0  0  0999 V2000
   -5.7977    0.7201   -3.1963 C   0  0  0  0  0  0  0  0  0  0  0  0
   -6.0044    1.3478   -1.8184 C   0  0  0  0  0  0  0  0  0  0  0  0
   -6.2745    0.3074   -0.7168 C   0  0  0  0  0  0  0  0  0  0  0  0
   -5.1314   -0.6965   -0.4809 C   0  0  0  0  0  0  0  0  0  0  0  0
   -3.8364   -0.0261    0.0009 C   0  0  0  0  0  0  0  0  0  0  0  0
   -2.7885   -1.0745    0.3942 C   0  0  0  0  0  0  0  0  0  0  0  0
   -1.4884   -0.4073    0.8592 C   0  0  0  0  0  0  0  0  0  0  0  0
   -0.4370   -1.4595    1.2420 C   0  0  0  0  0  0  0  0  0  0  0  0
    0.8342   -0.8366    1.8403 C   0  0  0  0  0  0  0  0  0  0  0  0
    1.6765   -0.0904    0.7948 C   0  0  0  0  0  0  0  0  0  0  0  0
    2.9979    0.3961    1.4012 C   0  0  0  0  0  0  0  0  0  0  0  0
    3.8365    1.1442    0.3623 C   0  0  0  0  0  0  0  0  0  0  0  0
    5.3691    1.7994    1.1102 S   0  0  0  0  0  0  0  0  0  0  0  0
    6.2567    0.2395    1.0403 C   0  0  0  0  0  0  0  0  0  0  0  0
    7.0003   -0.2790   -0.0004 C   0  0  0  0  0  0  0  0  0  0  0  0
    7.4966   -1.4657    0.4043 N   0  0  0  0  0  0  0  0  0  0  0  0
    7.0734   -1.6582    1.6467 N   0  0  0  0  0  0  0  0  0  0  0  0
    6.3271   -0.6419    2.0486 N   0  0  0  0  0  0  0  0  0  0  0  0
    7.2399    0.3050   -1.3275 C   0  0  0  0  0  0  0  0  0  0  0  0
    6.6898    1.5364   -1.6689 O   0  0  0  0  0  0  0  0  0  0  0  0
    7.9491   -0.3150   -2.1641 O   0  0  0  0  0  0  0  0  0  0  0  0
   -4.8342    0.1709   -3.2356 H   0  0  0  0  0  0  0  0  0  0  0  0
   -6.6317    0.0274   -3.4378 H   0  0  0  0  0  0  0  0  0  0  0  0
   -5.7684    1.5204   -3.9655 H   0  0  0  0  0  0  0  0  0  0  0  0
   -5.1281    1.9772   -1.5572 H   0  0  0  0  0  0  0  0  0  0  0  0
   -6.8839    2.0252   -1.8747 H   0  0  0  0  0  0  0  0  0  0  0  0
   -6.4843    0.8443    0.2339 H   0  0  0  0  0  0  0  0  0  0  0  0
   -7.1948   -0.2597   -0.9771 H   0  0  0  0  0  0  0  0  0  0  0  0
   -5.4727   -1.4167    0.2948 H   0  0  0  0  0  0  0  0  0  0  0  0
   -4.9361   -1.2819   -1.4043 H   0  0  0  0  0  0  0  0  0  0  0  0
   -4.0574    0.6198    0.8789 H   0  0  0  0  0  0  0  0  0  0  0  0
   -3.4204    0.6062   -0.8123 H   0  0  0  0  0  0  0  0  0  0  0  0
   -2.5744   -1.7266   -0.4814 H   0  0  0  0  0  0  0  0  0  0  0  0
   -3.1915   -1.7069    1.2160 H   0  0  0  0  0  0  0  0  0  0  0  0
   -1.0983    0.2290    0.0364 H   0  0  0  0  0  0  0  0  0  0  0  0
   -1.7026    0.2395    1.7384 H   0  0  0  0  0  0  0  0  0  0  0  0
   -0.8738   -2.1423    2.0036 H   0  0  0  0  0  0  0  0  0  0  0  0
   -0.1733   -2.0729    0.3525 H   0  0  0  0  0  0  0  0  0  0  0  0
    0.5618   -0.1472    2.6696 H   0  0  0  0  0  0  0  0  0  0  0  0
    1.4458   -1.6583    2.2735 H   0  0  0  0  0  0  0  0  0  0  0  0
    1.8937   -0.7693   -0.0591 H   0  0  0  0  0  0  0  0  0  0  0  0
    1.1111    0.7877    0.4163 H   0  0  0  0  0  0  0  0  0  0  0  0
    3.5699   -0.4784    1.7776 H   0  0  0  0  0  0  0  0  0  0  0  0
    2.7851    1.0748    2.2562 H   0  0  0  0  0  0  0  0  0  0  0  0
    3.2557    2.0072   -0.0273 H   0  0  0  0  0  0  0  0  0  0  0  0
    4.0791    0.4790   -0.4948 H   0  0  0  0  0  0  0  0  0  0  0  0
    5.8846   -0.5606    2.9905 H   0  0  0  0  0  0  0  0  0  0  0  0
    6.8504    1.9425   -2.5829 H   0  0  0  0  0  0  0  0  0  0  0  0
  1  2  1  0
  2  3  1  0
  3  4  1  0
  4  5  1  0
  5  6  1  0
  6  7  1  0
  7  8  1  0
  8  9  1  0
  9 10  1  0
 10 11  1  0
 11 12  1  0
 12 13  1  0
 13 14  1  0
 14 15  2  0
 15 16  1  0
 16 17  2  0
 17 18  1  0
 15 19  1  0
 19 20  1  0
 19 21  2  0
 18 14  1  0
  1 22  1  0
  1 23  1  0
  1 24  1  0
  2 25  1  0
  2 26  1  0
  3 27  1  0
  3 28  1  0
  4 29  1  0
  4 30  1  0
  5 31  1  0
  5 32  1  0
  6 33  1  0
  6 34  1  0
  7 35  1  0
  7 36  1  0
  8 37  1  0
  8 38  1  0
  9 39  1  0
  9 40  1  0
 10 41  1  0
 10 42  1  0
 11 43  1  0
 11 44  1  0
 12 45  1  0
 12 46  1  0
 18 47  1  0
 20 48  1  0
M  END
$$$$
