
     RDKit          3D

 29 30  0  0  0  0  0  0  0  0999 V2000
    6.1500    0.8764    0.4515 O   0  0  0  0  0  0  0  0  0  0  0  0
    4.7626    0.7843    0.3657 C   0  0  0  0  0  0  0  0  0  0  0  0
    4.1534   -0.3655   -0.1516 C   0  0  0  0  0  0  0  0  0  0  0  0
    2.7598   -0.4490   -0.2324 C   0  0  0  0  0  0  0  0  0  0  0  0
    1.9542    0.6185    0.2150 C   0  0  0  0  0  0  0  0  0  0  0  0
    0.4722    0.5884    0.1414 C   0  0  0  0  0  0  0  0  0  0  0  0
   -0.2479   -0.5436    0.0878 C   0  0  0  0  0  0  0  0  0  0  0  0
   -1.7299   -0.5725    0.0140 C   0  0  0  0  0  0  0  0  0  0  0  0
   -2.3537   -1.7200   -0.5041 C   0  0  0  0  0  0  0  0  0  0  0  0
   -3.7476   -1.7998   -0.5864 C   0  0  0  0  0  0  0  0  0  0  0  0
   -4.3401   -2.9448   -1.1144 O   0  0  0  0  0  0  0  0  0  0  0  0
   -4.5344   -0.7320   -0.1387 C   0  0  0  0  0  0  0  0  0  0  0  0
   -3.9314    0.4088    0.3973 C   0  0  0  0  0  0  0  0  0  0  0  0
   -4.7296    1.4564    0.8518 O   0  0  0  0  0  0  0  0  0  0  0  0
   -2.5338    0.4889    0.4780 C   0  0  0  0  0  0  0  0  0  0  0  0
    2.5782    1.7735    0.7168 C   0  0  0  0  0  0  0  0  0  0  0  0
    3.9717    1.8524    0.7965 C   0  0  0  0  0  0  0  0  0  0  0  0
    6.7508    0.1196    0.1462 H   0  0  0  0  0  0  0  0  0  0  0  0
    4.7593   -1.1927   -0.4991 H   0  0  0  0  0  0  0  0  0  0  0  0
    2.3271   -1.3383   -0.6683 H   0  0  0  0  0  0  0  0  0  0  0  0
   -0.0337    1.5442    0.1485 H   0  0  0  0  0  0  0  0  0  0  0  0
    0.2572   -1.4997    0.0789 H   0  0  0  0  0  0  0  0  0  0  0  0
   -1.7570   -2.5537   -0.8552 H   0  0  0  0  0  0  0  0  0  0  0  0
   -5.3468   -3.0345   -1.1880 H   0  0  0  0  0  0  0  0  0  0  0  0
   -5.6140   -0.7903   -0.2000 H   0  0  0  0  0  0  0  0  0  0  0  0
   -4.3261    2.2977    1.2470 H   0  0  0  0  0  0  0  0  0  0  0  0
   -2.0927    1.3678    0.9268 H   0  0  0  0  0  0  0  0  0  0  0  0
    1.9850    2.6139    1.0568 H   0  0  0  0  0  0  0  0  0  0  0  0
    4.4372    2.7458    1.1929 H   0  0  0  0  0  0  0  0  0  0  0  0
  1  2  1  0
  2  3  2  0
  3  4  1  0
  4  5  2  0
  5  6  1  0
  6  7  2  0
  7  8  1  0
  8  9  2  0
  9 10  1  0
 10 11  1  0
 10 12  2  0
 12 13  1  0
 13 14  1  0
 13 15  2  0
  5 16  1  0
 16 17  2  0
 17  2  1  0
 15  8  1  0
  1 18  1  0
  3 19  1  0
  4 20  1  0
  6 21  1  0
  7 22  1  0
  9 23  1  0
 11 24  1  0
 12 25  1  0
 14 26  1  0
 15 27  1  0
 16 28  1  0
 17 29  1  0
M  END
$$$$
