
     RDKit          3D

 55 58  0  0  0  0  0  0  0  0999 V2000
   -4.5789    1.2298    0.6061 C   0  0  2  0  0  0  0  0  0  0  0  0
   -5.7591    1.9013    0.0242 N   0  0  0  0  0  0  0  0  0  0  0  0
   -6.4596    1.0585   -0.9560 C   0  0  0  0  0  0  0  0  0  0  0  0
   -5.5697    0.7299   -2.1582 C   0  0  0  0  0  0  0  0  0  0  0  0
   -4.1562    0.3920   -1.7642 C   0  0  0  0  0  0  0  0  0  0  0  0
   -3.6515    0.7228   -0.4886 C   0  0  0  0  0  0  0  0  0  0  0  0
   -2.2759    0.5762   -0.2352 C   0  0  0  0  0  0  0  0  0  0  0  0
   -1.4115    0.0707   -1.2152 C   0  0  0  0  0  0  0  0  0  0  0  0
   -0.0199   -0.1075   -0.9011 N   0  0  0  0  0  0  0  0  0  0  0  0
    1.0503    0.1326   -1.8348 C   0  0  0  0  0  0  0  0  0  0  0  0
    0.7953    0.5992   -2.9787 O   0  0  0  0  0  0  0  0  0  0  0  0
    2.4606   -0.1514   -1.4759 C   0  0  0  0  0  0  0  0  0  0  0  0
    3.3707   -0.5252   -2.4798 C   0  0  0  0  0  0  0  0  0  0  0  0
    4.7051   -0.7963   -2.1685 C   0  0  0  0  0  0  0  0  0  0  0  0
    5.1578   -0.6896   -0.8466 C   0  0  0  0  0  0  0  0  0  0  0  0
    6.4975   -0.9590   -0.5259 C   0  0  0  0  0  0  0  0  0  0  0  0
    6.9523   -0.8421    0.8002 C   0  0  0  0  0  0  0  0  0  0  0  0
    6.0492   -0.4456    1.8009 C   0  0  0  0  0  0  0  0  0  0  0  0
    4.7141   -0.1768    1.4895 C   0  0  0  0  0  0  0  0  0  0  0  0
    4.2573   -0.2981    0.1697 C   0  0  0  0  0  0  0  0  0  0  0  0
    2.9173   -0.0285   -0.1505 C   0  0  0  0  0  0  0  0  0  0  0  0
    8.3692   -1.1222    1.1441 C   0  0  0  0  0  0  0  0  0  0  0  0
    9.0384   -0.3361    2.1336 N   0  0  0  0  0  0  0  0  0  0  0  0
    9.0182   -2.0843    0.5647 N   0  0  0  0  0  0  0  0  0  0  0  0
   -1.9360   -0.3105   -2.4596 C   0  0  0  0  0  0  0  0  0  0  0  0
   -3.2916   -0.1298   -2.7374 C   0  0  0  0  0  0  0  0  0  0  0  0
   -5.0014    0.1032    1.6051 C   0  0  0  0  0  0  0  0  0  0  0  0
   -3.8067   -0.4514    2.3995 C   0  0  0  0  0  0  0  0  0  0  0  0
   -6.0659    0.6110    2.5933 C   0  0  0  0  0  0  0  0  0  0  0  0
   -4.0251    1.9991    1.1917 H   0  0  0  0  0  0  0  0  0  0  0  0
   -5.4481    2.7815   -0.4519 H   0  0  0  0  0  0  0  0  0  0  0  0
   -6.8233    0.1232   -0.4830 H   0  0  0  0  0  0  0  0  0  0  0  0
   -7.3627    1.5979   -1.3145 H   0  0  0  0  0  0  0  0  0  0  0  0
   -5.5400    1.6127   -2.8331 H   0  0  0  0  0  0  0  0  0  0  0  0
   -6.0195   -0.1173   -2.7203 H   0  0  0  0  0  0  0  0  0  0  0  0
   -1.8710    0.8613    0.7280 H   0  0  0  0  0  0  0  0  0  0  0  0
    0.2105   -0.3795    0.0797 H   0  0  0  0  0  0  0  0  0  0  0  0
    3.0450   -0.6211   -3.5084 H   0  0  0  0  0  0  0  0  0  0  0  0
    5.3824   -1.0903   -2.9617 H   0  0  0  0  0  0  0  0  0  0  0  0
    7.1888   -1.2378   -1.3126 H   0  0  0  0  0  0  0  0  0  0  0  0
    6.3705   -0.3616    2.8314 H   0  0  0  0  0  0  0  0  0  0  0  0
    4.0380    0.1215    2.2821 H   0  0  0  0  0  0  0  0  0  0  0  0
    2.2464    0.3051    0.6307 H   0  0  0  0  0  0  0  0  0  0  0  0
   10.0218   -0.5581    2.4066 H   0  0  0  0  0  0  0  0  0  0  0  0
    8.5817    0.5000    2.5602 H   0  0  0  0  0  0  0  0  0  0  0  0
    8.5856   -2.7104   -0.1502 H   0  0  0  0  0  0  0  0  0  0  0  0
   -1.3023   -0.7525   -3.2167 H   0  0  0  0  0  0  0  0  0  0  0  0
   -3.6677   -0.3862   -3.7203 H   0  0  0  0  0  0  0  0  0  0  0  0
   -5.4366   -0.7503    1.0424 H   0  0  0  0  0  0  0  0  0  0  0  0
   -3.2436    0.3703    2.8916 H   0  0  0  0  0  0  0  0  0  0  0  0
   -4.1543   -1.1596    3.1819 H   0  0  0  0  0  0  0  0  0  0  0  0
   -3.1269   -1.0224    1.7350 H   0  0  0  0  0  0  0  0  0  0  0  0
   -6.3422   -0.1896    3.3123 H   0  0  0  0  0  0  0  0  0  0  0  0
   -6.9930    0.9048    2.0583 H   0  0  0  0  0  0  0  0  0  0  0  0
   -5.6839    1.4863    3.1614 H   0  0  0  0  0  0  0  0  0  0  0  0
  1  2  1  0
  2  3  1  0
  3  4  1  0
  4  5  1  0
  5  6  2  0
  6  7  1  0
  7  8  2  0
  8  9  1  0
  9 10  1  0
 10 11  2  0
 10 12  1  0
 12 13  2  0
 13 14  1  0
 14 15  2  0
 15 16  1  0
 16 17  2  0
 17 18  1  0
 18 19  2  0
 19 20  1  0
 20 21  2  0
 17 22  1  0
 22 23  1  0
 22 24  2  3
  8 25  1  0
 25 26  2  0
  1 27  1  0
 27 28  1  0
 27 29  1  0
  6  1  1  0
 21 12  1  0
 26  5  1  0
 20 15  1  0
  1 30  1  1
  2 31  1  0
  3 32  1  0
  3 33  1  0
  4 34  1  0
  4 35  1  0
  7 36  1  0
  9 37  1  0
 13 38  1  0
 14 39  1  0
 16 40  1  0
 18 41  1  0
 19 42  1  0
 21 43  1  0
 23 44  1  0
 23 45  1  0
 24 46  1  0
 25 47  1  0
 26 48  1  0
 27 49  1  0
 28 50  1  0
 28 51  1  0
 28 52  1  0
 29 53  1  0
 29 54  1  0
 29 55  1  0
M  END
$$$$
