
     RDKit          3D

 31 30  0  0  0  0  0  0  0  0999 V2000
    0.0000    0.0000    0.0000 Mg  0  0  0  0  0 15  0  0  0  0  0  0
    0.8329    2.2000    0.4660 O   0  0  0  0  0  0  0  0  0  0  0  0
    0.1173    1.0392    0.1641 C   0  0  0  0  0  0  0  0  0  0  0  0
   -1.2737    1.1470    0.0382 C   0  0  0  0  0  0  0  0  0  0  0  0
   -2.0572    0.0144   -0.1872 C   0  0  0  0  0  0  0  0  0  0  0  0
   -1.4567   -1.2395   -0.2905 C   0  0  0  0  0  0  0  0  0  0  0  0
   -0.0693   -1.3621   -0.1883 C   0  0  0  0  0  0  0  0  0  0  0  0
    0.7389   -0.2288    0.0180 C   0  0  0  0  0  0  0  0  0  0  0  0
    2.2074   -0.4094    0.0404 C   0  0  0  0  0  0  0  0  0  0  0  0
    2.7541   -1.6024    0.4990 O   0  0  0  0  0  1  0  0  0  0  0  0
    2.9758    0.4806   -0.4096 O   0  0  0  0  0  0  0  0  0  0  0  0
    1.4594    1.8565   -0.0596 O   0  0  0  0  0  0  0  0  0  0  0  0
    0.4380    0.9073   -0.0178 C   0  0  0  0  0  0  0  0  0  0  0  0
   -0.8973    1.3361    0.0372 C   0  0  0  0  0  0  0  0  0  0  0  0
   -1.9373    0.4068    0.0798 C   0  0  0  0  0  0  0  0  0  0  0  0
   -1.6536   -0.9583    0.0678 C   0  0  0  0  0  0  0  0  0  0  0  0
   -0.3292   -1.3992    0.0132 C   0  0  0  0  0  0  0  0  0  0  0  0
    0.7344   -0.4770   -0.0303 C   0  0  0  0  0  0  0  0  0  0  0  0
    2.1299   -0.9817   -0.0878 C   0  0  0  0  0  0  0  0  0  0  0  0
    2.3809   -2.3492   -0.0985 O   0  0  0  0  0  1  0  0  0  0  0  0
    3.1069   -0.1880   -0.1278 O   0  0  0  0  0  0  0  0  0  0  0  0
    1.8049    2.2012    0.7422 H   0  0  0  0  0  0  0  0  0  0  0  0
   -1.7516    2.1133    0.1387 H   0  0  0  0  0  0  0  0  0  0  0  0
   -3.1321    0.1082   -0.2726 H   0  0  0  0  0  0  0  0  0  0  0  0
   -2.0661   -2.1178   -0.4605 H   0  0  0  0  0  0  0  0  0  0  0  0
    0.3753   -2.3438   -0.2979 H   0  0  0  0  0  0  0  0  0  0  0  0
    1.2635    2.8507   -0.0513 H   0  0  0  0  0  0  0  0  0  0  0  0
   -1.1296    2.3934    0.0471 H   0  0  0  0  0  0  0  0  0  0  0  0
   -2.9644    0.7456    0.1221 H   0  0  0  0  0  0  0  0  0  0  0  0
   -2.4618   -1.6777    0.1008 H   0  0  0  0  0  0  0  0  0  0  0  0
   -0.1398   -2.4652    0.0051 H   0  0  0  0  0  0  0  0  0  0  0  0
  2  3  1  0
  3  4  2  0
  4  5  1  0
  5  6  2  0
  6  7  1  0
  7  8  2  0
  8  9  1  0
  9 10  1  0
  9 11  2  0
 12 13  1  0
 13 14  2  0
 14 15  1  0
 15 16  2  0
 16 17  1  0
 17 18  2  0
 18 19  1  0
 19 20  1  0
 19 21  2  0
  8  3  1  0
 18 13  1  0
  2 22  1  0
  4 23  1  0
  5 24  1  0
  6 25  1  0
  7 26  1  0
 12 27  1  0
 14 28  1  0
 15 29  1  0
 16 30  1  0
 17 31  1  0
M  CHG  3   1   2  10  -1  20  -1
M  END
$$$$
