
     RDKit          3D

 36 38  0  0  0  0  0  0  0  0999 V2000
    5.3073   -1.1833   -0.1192 C   0  0  0  0  0  0  0  0  0  0  0  0
    3.9450   -1.6478   -1.1631 S   0  0  0  0  0  6  0  0  0  0  0  0
    4.3376   -1.4846   -2.6048 O   0  0  0  0  0  0  0  0  0  0  0  0
    3.5927   -3.0885   -0.9194 O   0  0  0  0  0  0  0  0  0  0  0  0
    2.5580   -0.6257   -0.8030 C   0  0  0  0  0  0  0  0  0  0  0  0
    2.3775    0.5839   -1.4856 C   0  0  0  0  0  0  0  0  0  0  0  0
    1.2829    1.4022   -1.1915 C   0  0  0  0  0  0  0  0  0  0  0  0
    0.3500    1.0175   -0.2152 C   0  0  0  0  0  0  0  0  0  0  0  0
    0.5518   -0.1837    0.4872 C   0  0  0  0  0  0  0  0  0  0  0  0
    1.6461   -1.0009    0.1915 C   0  0  0  0  0  0  0  0  0  0  0  0
   -0.7999    1.8979    0.0977 C   0  0  0  0  0  0  0  0  0  0  0  0
   -2.0556    1.5051    0.3474 C   0  0  0  0  0  0  0  0  0  0  0  0
   -2.7972    2.6948    0.7098 C   0  0  0  0  0  0  0  0  0  0  0  0
   -4.0219    2.7423    0.9974 O   0  0  0  0  0  0  0  0  0  0  0  0
   -1.9750    3.8018    0.6663 O   0  0  0  0  0  0  0  0  0  0  0  0
   -0.6728    3.3933    0.2649 C   0  0  0  0  0  0  0  0  0  0  0  0
   -2.6236    0.1435    0.2181 C   0  0  0  0  0  0  0  0  0  0  0  0
   -2.3220   -0.6582   -0.8975 C   0  0  0  0  0  0  0  0  0  0  0  0
   -2.8669   -1.9405   -1.0128 C   0  0  0  0  0  0  0  0  0  0  0  0
   -3.7232   -2.4293   -0.0230 C   0  0  0  0  0  0  0  0  0  0  0  0
   -4.0388   -1.6349    1.0822 C   0  0  0  0  0  0  0  0  0  0  0  0
   -3.4955   -0.3520    1.2020 C   0  0  0  0  0  0  0  0  0  0  0  0
    5.5711   -0.1216   -0.3044 H   0  0  0  0  0  0  0  0  0  0  0  0
    6.1837   -1.8257   -0.3434 H   0  0  0  0  0  0  0  0  0  0  0  0
    5.0192   -1.3106    0.9447 H   0  0  0  0  0  0  0  0  0  0  0  0
    3.0842    0.8955   -2.2441 H   0  0  0  0  0  0  0  0  0  0  0  0
    1.1585    2.3284   -1.7378 H   0  0  0  0  0  0  0  0  0  0  0  0
   -0.1285   -0.4834    1.2743 H   0  0  0  0  0  0  0  0  0  0  0  0
    1.7859   -1.9212    0.7441 H   0  0  0  0  0  0  0  0  0  0  0  0
    0.0661    3.6384    1.0567 H   0  0  0  0  0  0  0  0  0  0  0  0
   -0.4041    3.8796   -0.6961 H   0  0  0  0  0  0  0  0  0  0  0  0
   -1.6742   -0.2889   -1.6826 H   0  0  0  0  0  0  0  0  0  0  0  0
   -2.6285   -2.5537   -1.8722 H   0  0  0  0  0  0  0  0  0  0  0  0
   -4.1445   -3.4221   -0.1140 H   0  0  0  0  0  0  0  0  0  0  0  0
   -4.7035   -2.0140    1.8477 H   0  0  0  0  0  0  0  0  0  0  0  0
   -3.7420    0.2462    2.0703 H   0  0  0  0  0  0  0  0  0  0  0  0
  1  2  1  0
  2  3  2  0
  2  4  2  0
  2  5  1  0
  5  6  2  0
  6  7  1  0
  7  8  2  0
  8  9  1  0
  9 10  2  0
  8 11  1  0
 11 12  2  0
 12 13  1  0
 13 14  2  0
 13 15  1  0
 15 16  1  0
 12 17  1  0
 17 18  2  0
 18 19  1  0
 19 20  2  0
 20 21  1  0
 21 22  2  0
 10  5  1  0
 16 11  1  0
 22 17  1  0
  1 23  1  0
  1 24  1  0
  1 25  1  0
  6 26  1  0
  7 27  1  0
  9 28  1  0
 10 29  1  0
 16 30  1  0
 16 31  1  0
 18 32  1  0
 19 33  1  0
 20 34  1  0
 21 35  1  0
 22 36  1  0
M  END
$$$$
