
     RDKit          3D

 40 42  0  0  0  0  0  0  0  0999 V2000
   -3.9991   -3.8350    0.8291 O   0  0  0  0  0  0  0  0  0  0  0  0
   -3.1235   -2.7692    0.6345 C   0  0  0  0  0  0  0  0  0  0  0  0
   -3.3362   -1.8494   -0.3965 C   0  0  0  0  0  0  0  0  0  0  0  0
   -2.4531   -0.7822   -0.5855 C   0  0  0  0  0  0  0  0  0  0  0  0
   -1.3348   -0.6057    0.2651 C   0  0  0  0  0  0  0  0  0  0  0  0
   -1.1345   -1.5560    1.2923 C   0  0  0  0  0  0  0  0  0  0  0  0
   -2.0206   -2.6202    1.4750 C   0  0  0  0  0  0  0  0  0  0  0  0
   -0.3179    0.5434    0.0975 C   0  0  0  0  0  0  0  0  0  0  0  0
   -0.3494    1.4039    1.4079 C   0  0  0  0  0  0  0  0  0  0  0  0
    0.5326    2.6675    1.3437 C   0  0  0  0  0  0  0  0  0  0  0  0
    0.1753    3.5429    0.1424 C   0  0  0  0  0  0  0  0  0  0  0  0
    0.2305    2.7325   -1.1526 C   0  0  0  0  0  0  0  0  0  0  0  0
   -0.7070    1.5215   -1.0649 C   0  0  0  0  0  0  0  0  0  0  0  0
    1.0525   -0.1142   -0.1990 C   0  0  0  0  0  0  0  0  0  0  0  0
    2.0842   -0.2101    0.7661 C   0  0  0  0  0  0  0  0  0  0  0  0
    3.2909   -0.8497    0.4692 C   0  0  0  0  0  0  0  0  0  0  0  0
    3.4876   -1.4428   -0.7773 C   0  0  0  0  0  0  0  0  0  0  0  0
    4.6974   -2.0740   -1.0575 O   0  0  0  0  0  0  0  0  0  0  0  0
    2.4632   -1.4090   -1.7265 C   0  0  0  0  0  0  0  0  0  0  0  0
    1.2555   -0.7701   -1.4357 C   0  0  0  0  0  0  0  0  0  0  0  0
   -4.8084   -3.9709    0.2346 H   0  0  0  0  0  0  0  0  0  0  0  0
   -4.1862   -1.9622   -1.0576 H   0  0  0  0  0  0  0  0  0  0  0  0
   -2.6620   -0.1130   -1.4059 H   0  0  0  0  0  0  0  0  0  0  0  0
   -0.2811   -1.4820    1.9533 H   0  0  0  0  0  0  0  0  0  0  0  0
   -1.8461   -3.3336    2.2704 H   0  0  0  0  0  0  0  0  0  0  0  0
   -0.0677    0.8116    2.3021 H   0  0  0  0  0  0  0  0  0  0  0  0
   -1.3970    1.7327    1.5938 H   0  0  0  0  0  0  0  0  0  0  0  0
    1.6076    2.4019    1.2886 H   0  0  0  0  0  0  0  0  0  0  0  0
    0.3874    3.2569    2.2745 H   0  0  0  0  0  0  0  0  0  0  0  0
   -0.8445    3.9660    0.2780 H   0  0  0  0  0  0  0  0  0  0  0  0
    0.8915    4.3902    0.0777 H   0  0  0  0  0  0  0  0  0  0  0  0
    1.2729    2.4010   -1.3516 H   0  0  0  0  0  0  0  0  0  0  0  0
   -0.0869    3.3801   -1.9982 H   0  0  0  0  0  0  0  0  0  0  0  0
   -1.7366    1.9105   -0.8972 H   0  0  0  0  0  0  0  0  0  0  0  0
   -0.7197    1.0181   -2.0521 H   0  0  0  0  0  0  0  0  0  0  0  0
    1.9762    0.1887    1.7618 H   0  0  0  0  0  0  0  0  0  0  0  0
    4.0719   -0.8957    1.2178 H   0  0  0  0  0  0  0  0  0  0  0  0
    4.8685   -2.5175   -1.9524 H   0  0  0  0  0  0  0  0  0  0  0  0
    2.5952   -1.8912   -2.6869 H   0  0  0  0  0  0  0  0  0  0  0  0
    0.4714   -0.8158   -2.1778 H   0  0  0  0  0  0  0  0  0  0  0  0
  1  2  1  0
  2  3  2  0
  3  4  1  0
  4  5  2  0
  5  6  1  0
  6  7  2  0
  5  8  1  0
  8  9  1  0
  9 10  1  0
 10 11  1  0
 11 12  1  0
 12 13  1  0
  8 14  1  0
 14 15  2  0
 15 16  1  0
 16 17  2  0
 17 18  1  0
 17 19  1  0
 19 20  2  0
  7  2  1  0
 13  8  1  0
 20 14  1  0
  1 21  1  0
  3 22  1  0
  4 23  1  0
  6 24  1  0
  7 25  1  0
  9 26  1  0
  9 27  1  0
 10 28  1  0
 10 29  1  0
 11 30  1  0
 11 31  1  0
 12 32  1  0
 12 33  1  0
 13 34  1  0
 13 35  1  0
 15 36  1  0
 16 37  1  0
 18 38  1  0
 19 39  1  0
 20 40  1  0
M  END
$$$$
