
     RDKit          3D

 25 25  0  0  0  0  0  0  0  0999 V2000
   -3.8317    0.5055    0.7356 O   0  0  0  0  0  0  0  0  0  0  0  0
   -2.5798    0.9580    1.1760 C   0  0  0  0  0  0  0  0  0  0  0  0
   -1.5198    0.7997    0.0764 C   0  0  1  0  0  0  0  0  0  0  0  0
   -0.2893    1.3219    0.5335 O   0  0  0  0  0  0  0  0  0  0  0  0
    0.6907    0.3163    0.4023 C   0  0  2  0  0  0  0  0  0  0  0  0
    1.8828    0.9100   -0.0755 O   0  0  0  0  0  0  0  0  0  0  0  0
    3.2426    0.0798    0.5430 P   0  0  0  0  0  5  0  0  0  0  0  0
    4.6426    0.7259   -0.1529 O   0  0  0  0  0  0  0  0  0  0  0  0
    3.1542   -1.5705    0.1772 O   0  0  0  0  0  0  0  0  0  0  0  0
    3.3154    0.2590    2.0428 O   0  0  0  0  0  0  0  0  0  0  0  0
    0.1669   -0.7350   -0.5707 C   0  0  2  0  0  0  0  0  0  0  0  0
    0.4909   -0.3776   -1.8927 O   0  0  0  0  0  0  0  0  0  0  0  0
   -1.3193   -0.6599   -0.3380 C   0  0  2  0  0  0  0  0  0  0  0  0
   -2.0398   -0.9748   -1.5022 O   0  0  0  0  0  0  0  0  0  0  0  0
   -4.1775    1.1931    0.1085 H   0  0  0  0  0  0  0  0  0  0  0  0
   -2.6469    2.0270    1.4816 H   0  0  0  0  0  0  0  0  0  0  0  0
   -2.2813    0.3737    2.0727 H   0  0  0  0  0  0  0  0  0  0  0  0
   -1.8322    1.3988   -0.8084 H   0  0  0  0  0  0  0  0  0  0  0  0
    0.8083   -0.1454    1.4127 H   0  0  0  0  0  0  0  0  0  0  0  0
    4.4954    0.6522   -1.1295 H   0  0  0  0  0  0  0  0  0  0  0  0
    3.1737   -1.6109   -0.8122 H   0  0  0  0  0  0  0  0  0  0  0  0
    0.5640   -1.7460   -0.3186 H   0  0  0  0  0  0  0  0  0  0  0  0
    0.4547   -1.2111   -2.4307 H   0  0  0  0  0  0  0  0  0  0  0  0
   -1.5861   -1.3603    0.4898 H   0  0  0  0  0  0  0  0  0  0  0  0
   -2.9785   -1.1294   -1.2208 H   0  0  0  0  0  0  0  0  0  0  0  0
  1  2  1  0
  2  3  1  0
  3  4  1  0
  4  5  1  0
  5  6  1  0
  6  7  1  0
  7  8  1  0
  7  9  1  0
  7 10  2  0
  5 11  1  0
 11 12  1  0
 11 13  1  0
 13 14  1  0
 13  3  1  0
  1 15  1  0
  2 16  1  0
  2 17  1  0
  3 18  1  6
  5 19  1  1
  8 20  1  0
  9 21  1  0
 11 22  1  1
 12 23  1  0
 13 24  1  1
 14 25  1  0
M  END
$$$$
