
     RDKit          3D

 35 36  0  0  0  0  0  0  0  0999 V2000
    5.2697    1.1495   -1.2002 N   0  0  0  0  0  0  0  0  0  0  0  0
    4.0689    0.5808   -0.6777 C   0  0  0  0  0  0  0  0  0  0  0  0
    4.0070    0.2129    0.6265 N   0  0  0  0  0  0  0  0  0  0  0  0
    2.8818   -0.3323    1.1586 C   0  0  0  0  0  0  0  0  0  0  0  0
    2.8734   -0.6378    2.3816 O   0  0  0  0  0  0  0  0  0  0  0  0
    1.7740   -0.5389    0.3730 N   0  0  0  0  0  0  0  0  0  0  0  0
    1.8025   -0.1506   -0.9402 C   0  0  0  0  0  0  0  0  0  0  0  0
    2.9525    0.4083   -1.4926 C   0  0  0  0  0  0  0  0  0  0  0  0
    0.5303   -1.0953    0.9465 C   0  0  2  0  0  0  0  0  0  0  0  0
   -0.0980   -1.9519    0.0133 O   0  0  0  0  0  0  0  0  0  0  0  0
   -1.4570   -1.5901   -0.0372 C   0  0  2  0  0  0  0  0  0  0  0  0
   -2.0143   -1.8739   -1.4392 C   0  0  0  0  0  0  0  0  0  0  0  0
   -3.3739   -1.5390   -1.5141 O   0  0  0  0  0  0  0  0  0  0  0  0
   -1.5670   -0.1196    0.3449 C   0  0  1  0  0  0  0  0  0  0  0  0
   -2.8307    0.1356    0.9289 O   0  0  0  0  0  0  0  0  0  0  0  0
   -3.2621    1.7670    0.6712 P   0  0  0  0  0  5  0  0  0  0  0  0
   -2.0755    2.7987    1.2989 O   0  0  0  0  0  0  0  0  0  0  0  0
   -3.4545    2.0582   -0.9860 O   0  0  0  0  0  0  0  0  0  0  0  0
   -4.5709    2.0430    1.3748 O   0  0  0  0  0  0  0  0  0  0  0  0
   -0.4339    0.0348    1.3350 C   0  0  1  0  0  0  0  0  0  0  0  0
   -0.8947   -0.1460    2.6507 O   0  0  0  0  0  0  0  0  0  0  0  0
    6.1017    1.2797   -0.5829 H   0  0  0  0  0  0  0  0  0  0  0  0
    5.3346    1.4418   -2.2008 H   0  0  0  0  0  0  0  0  0  0  0  0
    0.9313   -0.2678   -1.5728 H   0  0  0  0  0  0  0  0  0  0  0  0
    2.9700    0.7053   -2.5337 H   0  0  0  0  0  0  0  0  0  0  0  0
    0.7671   -1.7158    1.8399 H   0  0  0  0  0  0  0  0  0  0  0  0
   -2.0107   -2.2163    0.7002 H   0  0  0  0  0  0  0  0  0  0  0  0
   -1.4568   -1.2806   -2.1952 H   0  0  0  0  0  0  0  0  0  0  0  0
   -1.8718   -2.9499   -1.6886 H   0  0  0  0  0  0  0  0  0  0  0  0
   -3.8675   -2.2429   -1.0176 H   0  0  0  0  0  0  0  0  0  0  0  0
   -1.3541    0.5002   -0.5605 H   0  0  0  0  0  0  0  0  0  0  0  0
   -1.4659    2.9789    0.5395 H   0  0  0  0  0  0  0  0  0  0  0  0
   -4.0743    1.3507   -1.2963 H   0  0  0  0  0  0  0  0  0  0  0  0
    0.0334    1.0418    1.2278 H   0  0  0  0  0  0  0  0  0  0  0  0
   -0.1646    0.1614    3.2491 H   0  0  0  0  0  0  0  0  0  0  0  0
  1  2  1  0
  2  3  2  0
  3  4  1  0
  4  5  2  0
  4  6  1  0
  6  7  1  0
  7  8  2  0
  6  9  1  0
  9 10  1  0
 10 11  1  0
 11 12  1  0
 12 13  1  0
 11 14  1  0
 14 15  1  0
 15 16  1  0
 16 17  1  0
 16 18  1  0
 16 19  2  0
 14 20  1  0
 20 21  1  0
  8  2  1  0
 20  9  1  0
  1 22  1  0
  1 23  1  0
  7 24  1  0
  8 25  1  0
  9 26  1  1
 11 27  1  1
 12 28  1  0
 12 29  1  0
 13 30  1  0
 14 31  1  6
 17 32  1  0
 18 33  1  0
 20 34  1  1
 21 35  1  0
M  END
$$$$
