
     RDKit          3D

 52 51  0  0  0  0  0  0  0  0999 V2000
    8.3512   -1.7335    2.7818 O   0  0  0  0  0  0  0  0  0  0  0  0
    8.2451   -1.6645    1.3869 C   0  0  0  0  0  0  0  0  0  0  0  0
    6.7774   -1.7548    0.9738 C   0  0  0  0  0  0  0  0  0  0  0  0
    6.0267   -0.7110    1.5682 O   0  0  0  0  0  0  0  0  0  0  0  0
    5.9400    0.4153    0.7144 C   0  0  0  0  0  0  0  0  0  0  0  0
    4.6608    0.3543   -0.1167 C   0  0  0  0  0  0  0  0  0  0  0  0
    4.5651    1.5227   -0.9051 O   0  0  0  0  0  0  0  0  0  0  0  0
    3.3197    1.5684   -1.5761 C   0  0  0  0  0  0  0  0  0  0  0  0
    2.3298    2.4354   -0.7947 C   0  0  0  0  0  0  0  0  0  0  0  0
    1.1315    2.5937   -1.5310 O   0  0  0  0  0  0  0  0  0  0  0  0
    0.1596    1.6627   -1.1014 C   0  0  0  0  0  0  0  0  0  0  0  0
   -1.0579    1.7546   -2.0112 C   0  0  0  0  0  0  0  0  0  0  0  0
   -2.0288    0.8234   -1.5809 O   0  0  0  0  0  0  0  0  0  0  0  0
   -3.2262    0.9747   -2.3212 C   0  0  0  0  0  0  0  0  0  0  0  0
   -4.2226    1.8534   -1.5593 C   0  0  0  0  0  0  0  0  0  0  0  0
   -4.3956    1.3783   -0.2368 O   0  0  0  0  0  0  0  0  0  0  0  0
   -5.5335    0.5457   -0.1527 C   0  0  0  0  0  0  0  0  0  0  0  0
   -5.6012   -0.0673    1.2439 C   0  0  0  0  0  0  0  0  0  0  0  0
   -6.7714   -0.8530    1.3807 O   0  0  0  0  0  0  0  0  0  0  0  0
   -6.5185   -2.2140    1.0832 C   0  0  0  0  0  0  0  0  0  0  0  0
   -6.1772   -2.9801    2.3608 C   0  0  0  0  0  0  0  0  0  0  0  0
   -5.9083   -4.7424    1.9953 S   0  0  0  0  0  0  0  0  0  0  0  0
    9.3201   -1.6705    2.9871 H   0  0  0  0  0  0  0  0  0  0  0  0
    8.6814   -0.7091    1.0205 H   0  0  0  0  0  0  0  0  0  0  0  0
    8.8029   -2.5100    0.9263 H   0  0  0  0  0  0  0  0  0  0  0  0
    6.3702   -2.7218    1.3384 H   0  0  0  0  0  0  0  0  0  0  0  0
    6.6939   -1.7822   -0.1379 H   0  0  0  0  0  0  0  0  0  0  0  0
    5.8977    1.3234    1.3528 H   0  0  0  0  0  0  0  0  0  0  0  0
    6.8282    0.5388    0.0509 H   0  0  0  0  0  0  0  0  0  0  0  0
    4.6993   -0.5450   -0.7712 H   0  0  0  0  0  0  0  0  0  0  0  0
    3.7949    0.2667    0.5789 H   0  0  0  0  0  0  0  0  0  0  0  0
    2.8841    0.5610   -1.7771 H   0  0  0  0  0  0  0  0  0  0  0  0
    3.4855    2.0384   -2.5688 H   0  0  0  0  0  0  0  0  0  0  0  0
    2.1725    2.0233    0.2302 H   0  0  0  0  0  0  0  0  0  0  0  0
    2.7807    3.4414   -0.6588 H   0  0  0  0  0  0  0  0  0  0  0  0
   -0.1599    1.8948   -0.0599 H   0  0  0  0  0  0  0  0  0  0  0  0
    0.5531    0.6212   -1.1446 H   0  0  0  0  0  0  0  0  0  0  0  0
   -1.4519    2.7957   -1.9667 H   0  0  0  0  0  0  0  0  0  0  0  0
   -0.7385    1.5228   -3.0527 H   0  0  0  0  0  0  0  0  0  0  0  0
   -3.0697    1.3840   -3.3477 H   0  0  0  0  0  0  0  0  0  0  0  0
   -3.6725   -0.0321   -2.4591 H   0  0  0  0  0  0  0  0  0  0  0  0
   -3.8157    2.8844   -1.5018 H   0  0  0  0  0  0  0  0  0  0  0  0
   -5.1756    1.9312   -2.1350 H   0  0  0  0  0  0  0  0  0  0  0  0
   -5.4841   -0.2764   -0.9017 H   0  0  0  0  0  0  0  0  0  0  0  0
   -6.4584    1.1425   -0.3215 H   0  0  0  0  0  0  0  0  0  0  0  0
   -4.6622   -0.6271    1.4666 H   0  0  0  0  0  0  0  0  0  0  0  0
   -5.6566    0.7580    1.9852 H   0  0  0  0  0  0  0  0  0  0  0  0
   -5.7199   -2.3576    0.3177 H   0  0  0  0  0  0  0  0  0  0  0  0
   -7.4474   -2.6434    0.6519 H   0  0  0  0  0  0  0  0  0  0  0  0
   -7.0058   -2.8816    3.0941 H   0  0  0  0  0  0  0  0  0  0  0  0
   -5.2512   -2.5691    2.8142 H   0  0  0  0  0  0  0  0  0  0  0  0
   -7.2608   -4.9642    1.6718 H   0  0  0  0  0  0  0  0  0  0  0  0
  1  2  1  0
  2  3  1  0
  3  4  1  0
  4  5  1  0
  5  6  1  0
  6  7  1  0
  7  8  1  0
  8  9  1  0
  9 10  1  0
 10 11  1  0
 11 12  1  0
 12 13  1  0
 13 14  1  0
 14 15  1  0
 15 16  1  0
 16 17  1  0
 17 18  1  0
 18 19  1  0
 19 20  1  0
 20 21  1  0
 21 22  1  0
  1 23  1  0
  2 24  1  0
  2 25  1  0
  3 26  1  0
  3 27  1  0
  5 28  1  0
  5 29  1  0
  6 30  1  0
  6 31  1  0
  8 32  1  0
  8 33  1  0
  9 34  1  0
  9 35  1  0
 11 36  1  0
 11 37  1  0
 12 38  1  0
 12 39  1  0
 14 40  1  0
 14 41  1  0
 15 42  1  0
 15 43  1  0
 17 44  1  0
 17 45  1  0
 18 46  1  0
 18 47  1  0
 20 48  1  0
 20 49  1  0
 21 50  1  0
 21 51  1  0
 22 52  1  0
M  END
$$$$
