
     RDKit          3D

 53 57  0  0  0  0  0  0  0  0999 V2000
    3.7076   -0.3672    0.3798 C   0  0  1  0  0  0  0  0  0  0  0  0
    2.2726   -0.3740    0.9186 C   0  0  0  0  0  0  0  0  0  0  0  0
    1.4476    0.1693   -0.1454 N   0  0  0  0  0  0  0  0  0  0  0  0
    2.2014    0.5576   -1.3238 C   0  0  0  0  0  0  0  0  0  0  0  0
    3.5983   -0.0282   -1.1290 C   0  0  1  0  0  0  0  0  0  0  0  0
    4.6247    0.9305   -1.5817 N   0  0  0  0  0  0  0  0  0  0  0  0
    5.9450    0.5655   -1.0558 C   0  0  0  0  0  0  0  0  0  0  0  0
    5.9896    0.7316    0.4751 C   0  0  0  0  0  0  0  0  0  0  0  0
    4.5943    0.6530    1.1156 C   0  0  0  0  0  0  0  0  0  0  0  0
    0.0957    0.5837    0.0826 C   0  0  0  0  0  0  0  0  0  0  0  0
   -0.1336    1.9075    0.4628 C   0  0  0  0  0  0  0  0  0  0  0  0
    0.8937    2.7932    0.5126 F   0  0  0  0  0  0  0  0  0  0  0  0
   -1.3924    2.3136    0.8764 C   0  0  0  0  0  0  0  0  0  0  0  0
   -2.4666    1.4107    0.9023 C   0  0  0  0  0  0  0  0  0  0  0  0
   -3.7149    1.8153    1.4108 C   0  0  0  0  0  0  0  0  0  0  0  0
   -3.8751    2.9993    1.8193 O   0  0  0  0  0  0  0  0  0  0  0  0
   -4.7743    0.8986    1.4812 C   0  0  0  0  0  0  0  0  0  0  0  0
   -4.5765   -0.3858    0.9615 C   0  0  0  0  0  0  0  0  0  0  0  0
   -3.3981   -0.7541    0.3701 N   0  0  0  0  0  0  0  0  0  0  0  0
   -3.3792   -2.0705   -0.2980 C   0  0  0  0  0  0  0  0  0  0  0  0
   -4.5420   -2.3223   -1.2619 C   0  0  0  0  0  0  0  0  0  0  0  0
   -3.1688   -2.0024   -1.8088 C   0  0  0  0  0  0  0  0  0  0  0  0
   -2.2910    0.0779    0.4349 C   0  0  0  0  0  0  0  0  0  0  0  0
   -0.9733   -0.3485    0.0667 C   0  0  0  0  0  0  0  0  0  0  0  0
   -0.7401   -1.7014   -0.2356 O   0  0  0  0  0  0  0  0  0  0  0  0
    0.0996   -2.1771   -1.2852 C   0  0  0  0  0  0  0  0  0  0  0  0
   -6.0940    1.2598    2.0694 C   0  0  0  0  0  0  0  0  0  0  0  0
   -6.3050    2.5136    2.6376 O   0  0  0  0  0  0  0  0  0  0  0  0
   -7.0416    0.4276    2.0636 O   0  0  0  0  0  0  0  0  0  0  0  0
    4.1558   -1.3791    0.5042 H   0  0  0  0  0  0  0  0  0  0  0  0
    1.9485   -1.4109    1.1504 H   0  0  0  0  0  0  0  0  0  0  0  0
    2.1658    0.2438    1.8378 H   0  0  0  0  0  0  0  0  0  0  0  0
    2.2371    1.6664   -1.3952 H   0  0  0  0  0  0  0  0  0  0  0  0
    1.7284    0.1479   -2.2411 H   0  0  0  0  0  0  0  0  0  0  0  0
    3.6768   -0.9745   -1.7140 H   0  0  0  0  0  0  0  0  0  0  0  0
    4.6705    0.8866   -2.6269 H   0  0  0  0  0  0  0  0  0  0  0  0
    6.1878   -0.4866   -1.3307 H   0  0  0  0  0  0  0  0  0  0  0  0
    6.7196    1.2166   -1.5164 H   0  0  0  0  0  0  0  0  0  0  0  0
    6.6399   -0.0611    0.9053 H   0  0  0  0  0  0  0  0  0  0  0  0
    6.4445    1.7131    0.7318 H   0  0  0  0  0  0  0  0  0  0  0  0
    4.6936    0.3698    2.1861 H   0  0  0  0  0  0  0  0  0  0  0  0
    4.1178    1.6582    1.0695 H   0  0  0  0  0  0  0  0  0  0  0  0
   -1.5147    3.3376    1.2085 H   0  0  0  0  0  0  0  0  0  0  0  0
   -5.3975   -1.0935    0.9975 H   0  0  0  0  0  0  0  0  0  0  0  0
   -2.9959   -2.9534    0.2567 H   0  0  0  0  0  0  0  0  0  0  0  0
   -4.8261   -3.3891   -1.3805 H   0  0  0  0  0  0  0  0  0  0  0  0
   -5.2655   -1.4949   -1.4230 H   0  0  0  0  0  0  0  0  0  0  0  0
   -3.0775   -0.9800   -2.2346 H   0  0  0  0  0  0  0  0  0  0  0  0
   -2.6481   -2.8803   -2.2448 H   0  0  0  0  0  0  0  0  0  0  0  0
   -0.0295   -1.5542   -2.1951 H   0  0  0  0  0  0  0  0  0  0  0  0
    1.1599   -2.2000   -0.9704 H   0  0  0  0  0  0  0  0  0  0  0  0
   -0.1929   -3.2182   -1.5303 H   0  0  0  0  0  0  0  0  0  0  0  0
   -7.2020    2.7593    3.0392 H   0  0  0  0  0  0  0  0  0  0  0  0
  1  2  1  0
  2  3  1  0
  3  4  1  0
  4  5  1  0
  5  6  1  0
  6  7  1  0
  7  8  1  0
  8  9  1  0
  3 10  1  0
 10 11  2  0
 11 12  1  0
 11 13  1  0
 13 14  2  0
 14 15  1  0
 15 16  2  0
 15 17  1  0
 17 18  2  0
 18 19  1  0
 19 20  1  0
 20 21  1  0
 21 22  1  0
 19 23  1  0
 23 24  2  0
 24 25  1  0
 25 26  1  0
 17 27  1  0
 27 28  1  0
 27 29  2  0
  5  1  1  0
 24 10  1  0
  9  1  1  0
 23 14  1  0
 22 20  1  0
  1 30  1  6
  2 31  1  0
  2 32  1  0
  4 33  1  0
  4 34  1  0
  5 35  1  6
  6 36  1  0
  7 37  1  0
  7 38  1  0
  8 39  1  0
  8 40  1  0
  9 41  1  0
  9 42  1  0
 13 43  1  0
 18 44  1  0
 20 45  1  0
 21 46  1  0
 21 47  1  0
 22 48  1  0
 22 49  1  0
 26 50  1  0
 26 51  1  0
 26 52  1  0
 28 53  1  0
M  END
$$$$
