
     RDKit          3D

 47 47  0  0  0  0  0  0  0  0999 V2000
    0.1437   -1.7904    0.3675 C   0  0  1  0  0  0  0  0  0  0  0  0
   -1.1144   -1.3844   -0.2657 N   0  0  0  0  0  0  0  0  0  0  0  0
   -1.8425   -0.2226    0.1482 C   0  0  0  0  0  0  0  0  0  0  0  0
   -1.4948    0.4058    1.1846 O   0  0  0  0  0  0  0  0  0  0  0  0
   -2.9378    0.1999   -0.6194 O   0  0  0  0  0  0  0  0  0  0  0  0
   -3.7543    1.3541   -0.3703 C   0  0  0  0  0  0  0  0  0  0  0  0
   -2.9062    2.6399   -0.4186 C   0  0  0  0  0  0  0  0  0  0  0  0
   -4.8089    1.4135   -1.4859 C   0  0  0  0  0  0  0  0  0  0  0  0
   -4.4724    1.2278    0.9869 C   0  0  0  0  0  0  0  0  0  0  0  0
    0.3430   -3.3275    0.2621 C   0  0  0  0  0  0  0  0  0  0  0  0
   -0.8309   -4.0797    0.9097 C   0  0  0  0  0  0  0  0  0  0  0  0
    1.6588   -3.7698    0.9251 C   0  0  0  0  0  0  0  0  0  0  0  0
    1.2701   -1.0303   -0.2850 C   0  0  0  0  0  0  0  0  0  0  0  0
    1.6056   -1.3075   -1.4695 O   0  0  0  0  0  0  0  0  0  0  0  0
    1.9035    0.0540    0.4100 N   0  0  0  0  0  0  0  0  0  0  0  0
    3.0520    0.7452   -0.1069 C   0  0  0  0  0  0  0  0  0  0  0  0
    4.1576   -0.0007   -0.5475 C   0  0  0  0  0  0  0  0  0  0  0  0
    5.3220    0.6373   -0.9690 C   0  0  0  0  0  0  0  0  0  0  0  0
    5.4036    2.0272   -0.9467 C   0  0  0  0  0  0  0  0  0  0  0  0
    4.3181    2.7941   -0.5113 C   0  0  0  0  0  0  0  0  0  0  0  0
    4.4917    4.5478   -0.5434 Cl  0  0  0  0  0  0  0  0  0  0  0  0
    3.1219    2.1636   -0.0937 C   0  0  0  0  0  0  0  0  0  0  0  0
    1.9610    2.9933    0.3138 C   0  0  0  0  0  0  0  0  0  0  0  0
    0.7829    2.5528    0.2501 O   0  0  0  0  0  0  0  0  0  0  0  0
    0.1106   -1.5338    1.4501 H   0  0  0  0  0  0  0  0  0  0  0  0
   -1.4018   -1.8445   -1.1594 H   0  0  0  0  0  0  0  0  0  0  0  0
   -2.3249    2.6804   -1.3646 H   0  0  0  0  0  0  0  0  0  0  0  0
   -2.1943    2.6879    0.4304 H   0  0  0  0  0  0  0  0  0  0  0  0
   -3.5565    3.5395   -0.3628 H   0  0  0  0  0  0  0  0  0  0  0  0
   -5.4267    0.4897   -1.4816 H   0  0  0  0  0  0  0  0  0  0  0  0
   -5.4811    2.2891   -1.3538 H   0  0  0  0  0  0  0  0  0  0  0  0
   -4.3154    1.4931   -2.4785 H   0  0  0  0  0  0  0  0  0  0  0  0
   -3.7542    1.2696    1.8309 H   0  0  0  0  0  0  0  0  0  0  0  0
   -5.1999    2.0571    1.1225 H   0  0  0  0  0  0  0  0  0  0  0  0
   -5.0204    0.2628    1.0421 H   0  0  0  0  0  0  0  0  0  0  0  0
    0.3827   -3.6185   -0.8114 H   0  0  0  0  0  0  0  0  0  0  0  0
   -0.9288   -3.8042    1.9819 H   0  0  0  0  0  0  0  0  0  0  0  0
   -1.7832   -3.8431    0.3904 H   0  0  0  0  0  0  0  0  0  0  0  0
   -0.6729   -5.1769    0.8355 H   0  0  0  0  0  0  0  0  0  0  0  0
    2.5308   -3.3147    0.4104 H   0  0  0  0  0  0  0  0  0  0  0  0
    1.6776   -3.4712    1.9953 H   0  0  0  0  0  0  0  0  0  0  0  0
    1.7711   -4.8731    0.8596 H   0  0  0  0  0  0  0  0  0  0  0  0
    1.4966    0.3745    1.3173 H   0  0  0  0  0  0  0  0  0  0  0  0
    4.1265   -1.0830   -0.5365 H   0  0  0  0  0  0  0  0  0  0  0  0
    6.1690    0.0515   -1.3022 H   0  0  0  0  0  0  0  0  0  0  0  0
    6.3154    2.5113   -1.2732 H   0  0  0  0  0  0  0  0  0  0  0  0
    2.1067    4.0131    0.6421 H   0  0  0  0  0  0  0  0  0  0  0  0
  1  2  1  0
  2  3  1  0
  3  4  2  0
  3  5  1  0
  5  6  1  0
  6  7  1  0
  6  8  1  0
  6  9  1  0
  1 10  1  0
 10 11  1  0
 10 12  1  0
  1 13  1  0
 13 14  2  0
 13 15  1  0
 15 16  1  0
 16 17  2  0
 17 18  1  0
 18 19  2  0
 19 20  1  0
 20 21  1  0
 20 22  2  0
 22 23  1  0
 23 24  2  0
 22 16  1  0
  1 25  1  1
  2 26  1  0
  7 27  1  0
  7 28  1  0
  7 29  1  0
  8 30  1  0
  8 31  1  0
  8 32  1  0
  9 33  1  0
  9 34  1  0
  9 35  1  0
 10 36  1  0
 11 37  1  0
 11 38  1  0
 11 39  1  0
 12 40  1  0
 12 41  1  0
 12 42  1  0
 15 43  1  0
 17 44  1  0
 18 45  1  0
 19 46  1  0
 23 47  1  0
M  END
$$$$
