
     RDKit          3D

 26 25  0  0  0  0  0  0  0  0999 V2000
    2.8496    1.3527   -0.4450 C   0  0  0  0  0  0  0  0  0  0  0  0
    2.6502   -0.1296   -0.1383 C   0  0  0  0  0  0  0  0  0  0  0  0
    1.5715   -0.7344   -1.0012 C   0  0  0  0  0  0  0  0  0  0  0  0
    1.6634   -0.6524   -2.2176 O   0  0  0  0  0  0  0  0  0  0  0  0
    0.4290   -1.5182   -0.4000 C   0  0  0  0  0  0  0  0  0  0  0  0
   -0.9542   -0.9398   -0.7797 C   0  0  0  0  0  0  0  0  0  0  0  0
   -1.6320   -0.0986    0.3393 C   0  0  0  0  0  0  0  0  0  0  0  0
   -0.8042    1.1556    0.6578 C   0  0  0  0  0  0  0  0  0  0  0  0
   -3.0334    0.3419   -0.1293 C   0  0  0  0  0  0  0  0  0  0  0  0
   -1.7551   -0.8563    1.5203 O   0  0  0  0  0  0  0  0  0  0  0  0
    1.9076    1.9166   -0.2869 H   0  0  0  0  0  0  0  0  0  0  0  0
    3.1831    1.4891   -1.4958 H   0  0  0  0  0  0  0  0  0  0  0  0
    3.6285    1.7689    0.2280 H   0  0  0  0  0  0  0  0  0  0  0  0
    2.4055   -0.2459    0.9389 H   0  0  0  0  0  0  0  0  0  0  0  0
    3.6033   -0.6678   -0.3287 H   0  0  0  0  0  0  0  0  0  0  0  0
    0.4997   -2.5559   -0.7928 H   0  0  0  0  0  0  0  0  0  0  0  0
    0.5395   -1.5984    0.7020 H   0  0  0  0  0  0  0  0  0  0  0  0
   -0.8867   -0.3381   -1.7136 H   0  0  0  0  0  0  0  0  0  0  0  0
   -1.6219   -1.7968   -1.0209 H   0  0  0  0  0  0  0  0  0  0  0  0
   -1.3425    1.8017    1.3843 H   0  0  0  0  0  0  0  0  0  0  0  0
    0.1635    0.8753    1.1205 H   0  0  0  0  0  0  0  0  0  0  0  0
   -0.6113    1.7449   -0.2644 H   0  0  0  0  0  0  0  0  0  0  0  0
   -3.6588   -0.5424   -0.3776 H   0  0  0  0  0  0  0  0  0  0  0  0
   -3.5486    0.9126    0.6731 H   0  0  0  0  0  0  0  0  0  0  0  0
   -2.9616    0.9854   -1.0328 H   0  0  0  0  0  0  0  0  0  0  0  0
   -2.2838   -1.6700    1.3081 H   0  0  0  0  0  0  0  0  0  0  0  0
  1  2  1  0
  2  3  1  0
  3  4  2  0
  3  5  1  0
  5  6  1  0
  6  7  1  0
  7  8  1  0
  7  9  1  0
  7 10  1  0
  1 11  1  0
  1 12  1  0
  1 13  1  0
  2 14  1  0
  2 15  1  0
  5 16  1  0
  5 17  1  0
  6 18  1  0
  6 19  1  0
  8 20  1  0
  8 21  1  0
  8 22  1  0
  9 23  1  0
  9 24  1  0
  9 25  1  0
 10 26  1  0
M  END
$$$$
