
     RDKit          3D

 47 49  0  0  0  0  0  0  0  0999 V2000
    3.9324    3.0926    1.0228 O   0  0  0  0  0  0  0  0  0  0  0  0
    4.8602    3.3052    0.0082 C   0  0  0  0  0  0  0  0  0  0  0  0
    6.0128    3.7310    0.2866 O   0  0  0  0  0  0  0  0  0  0  0  0
    4.5050    2.9734   -1.4054 C   0  0  0  0  0  0  0  0  0  0  0  0
    4.8533    1.6213   -1.6946 O   0  0  0  0  0  0  0  0  0  0  0  0
    4.1874    0.5298   -1.1271 C   0  0  0  0  0  0  0  0  0  0  0  0
    4.8301   -0.3819   -0.2930 C   0  0  0  0  0  0  0  0  0  0  0  0
    3.7138   -1.5467    0.1770 S   0  0  0  0  0  0  0  0  0  0  0  0
    2.4036   -0.9146   -0.6726 C   0  0  0  0  0  0  0  0  0  0  0  0
    2.8306    0.2281   -1.3578 C   0  0  0  0  0  0  0  0  0  0  0  0
    1.7638    1.1466   -2.6620 Br  0  0  0  0  0  0  0  0  0  0  0  0
    1.0550   -1.5182   -0.6907 C   0  0  0  0  0  0  0  0  0  0  0  0
    0.9111   -2.9113   -0.7660 C   0  0  0  0  0  0  0  0  0  0  0  0
   -0.3595   -3.4886   -0.7715 C   0  0  0  0  0  0  0  0  0  0  0  0
   -1.4987   -2.6851   -0.6880 C   0  0  0  0  0  0  0  0  0  0  0  0
   -1.3764   -1.2859   -0.5844 C   0  0  0  0  0  0  0  0  0  0  0  0
   -2.5262   -0.4205   -0.4878 N   0  0  0  0  0  0  0  0  0  0  0  0
   -3.8996   -0.8822   -0.2296 C   0  0  0  0  0  0  0  0  0  0  0  0
   -4.0377   -1.4305    1.2066 C   0  0  0  0  0  0  0  0  0  0  0  0
   -3.9337   -0.3146    2.2532 C   0  0  0  0  0  0  0  0  0  0  0  0
   -4.9908    0.7656    2.0049 C   0  0  0  0  0  0  0  0  0  0  0  0
   -4.8565    1.3501    0.5953 C   0  0  0  0  0  0  0  0  0  0  0  0
   -4.9233    0.2488   -0.4752 C   0  0  0  0  0  0  0  0  0  0  0  0
   -0.0928   -0.7149   -0.5875 C   0  0  0  0  0  0  0  0  0  0  0  0
    6.2386   -0.3484    0.1271 C   0  0  0  0  0  0  0  0  0  0  0  0
    7.0847    0.6596   -0.3248 O   0  0  0  0  0  0  0  0  0  0  0  0
    6.6850   -1.2369    0.9008 O   0  0  0  0  0  0  0  0  0  0  0  0
    4.1646    3.2905    1.9887 H   0  0  0  0  0  0  0  0  0  0  0  0
    3.4232    3.1499   -1.5686 H   0  0  0  0  0  0  0  0  0  0  0  0
    5.0650    3.6415   -2.0930 H   0  0  0  0  0  0  0  0  0  0  0  0
    1.7813   -3.5521   -0.8369 H   0  0  0  0  0  0  0  0  0  0  0  0
   -0.4622   -4.5638   -0.8436 H   0  0  0  0  0  0  0  0  0  0  0  0
   -2.4650   -3.1676   -0.7039 H   0  0  0  0  0  0  0  0  0  0  0  0
   -2.3623    0.6027   -0.6246 H   0  0  0  0  0  0  0  0  0  0  0  0
   -4.1465   -1.6916   -0.9495 H   0  0  0  0  0  0  0  0  0  0  0  0
   -5.0223   -1.9375    1.3104 H   0  0  0  0  0  0  0  0  0  0  0  0
   -3.2557   -2.1910    1.4113 H   0  0  0  0  0  0  0  0  0  0  0  0
   -2.9180    0.1377    2.2238 H   0  0  0  0  0  0  0  0  0  0  0  0
   -4.0850   -0.7475    3.2654 H   0  0  0  0  0  0  0  0  0  0  0  0
   -4.8674    1.5785    2.7524 H   0  0  0  0  0  0  0  0  0  0  0  0
   -6.0069    0.3320    2.1347 H   0  0  0  0  0  0  0  0  0  0  0  0
   -3.9002    1.9097    0.5144 H   0  0  0  0  0  0  0  0  0  0  0  0
   -5.6812    2.0746    0.4226 H   0  0  0  0  0  0  0  0  0  0  0  0
   -4.7509    0.6983   -1.4772 H   0  0  0  0  0  0  0  0  0  0  0  0
   -5.9478   -0.1848   -0.4797 H   0  0  0  0  0  0  0  0  0  0  0  0
    0.0093    0.3576   -0.4794 H   0  0  0  0  0  0  0  0  0  0  0  0
    8.0557    0.6913   -0.0381 H   0  0  0  0  0  0  0  0  0  0  0  0
  1  2  1  0
  2  3  2  0
  2  4  1  0
  4  5  1  0
  5  6  1  0
  6  7  2  0
  7  8  1  0
  8  9  1  0
  9 10  2  0
 10 11  1  0
  9 12  1  0
 12 13  2  0
 13 14  1  0
 14 15  2  0
 15 16  1  0
 16 17  1  0
 17 18  1  0
 18 19  1  0
 19 20  1  0
 20 21  1  0
 21 22  1  0
 22 23  1  0
 16 24  2  0
  7 25  1  0
 25 26  1  0
 25 27  2  0
 10  6  1  0
 24 12  1  0
 23 18  1  0
  1 28  1  0
  4 29  1  0
  4 30  1  0
 13 31  1  0
 14 32  1  0
 15 33  1  0
 17 34  1  0
 18 35  1  0
 19 36  1  0
 19 37  1  0
 20 38  1  0
 20 39  1  0
 21 40  1  0
 21 41  1  0
 22 42  1  0
 22 43  1  0
 23 44  1  0
 23 45  1  0
 24 46  1  0
 26 47  1  0
M  END
$$$$
