
     RDKit          3D

 29 30  0  0  0  0  0  0  0  0999 V2000
   -4.3946   -1.6875    1.1604 C   0  0  0  0  0  0  0  0  0  0  0  0
   -3.5204   -0.6163    0.7051 N   0  0  0  0  0  0  0  0  0  0  0  0
   -3.9374    0.5581    0.2333 N   0  0  0  0  0  0  0  0  0  0  0  0
   -2.8448    1.2520   -0.1964 C   0  0  0  0  0  0  0  0  0  0  0  0
   -1.7334    0.4540   -0.0151 C   0  0  0  0  0  0  0  0  0  0  0  0
   -2.1930   -0.6654    0.5399 C   0  0  0  0  0  0  0  0  0  0  0  0
   -0.9986   -1.8151    0.7537 S   0  0  0  0  0  0  0  0  0  0  0  0
    0.1984   -0.7696    0.0936 C   0  0  0  0  0  0  0  0  0  0  0  0
   -0.3748    0.4606   -0.2949 C   0  0  0  0  0  0  0  0  0  0  0  0
    1.6197   -1.1414   -0.0364 C   0  0  0  0  0  0  0  0  0  0  0  0
    2.0105   -2.2366    0.4510 O   0  0  0  0  0  0  0  0  0  0  0  0
    2.5565   -0.2850   -0.7098 N   0  0  0  0  0  0  0  0  0  0  0  0
    3.9927   -0.5612   -0.7331 C   0  0  0  0  0  0  0  0  0  0  0  0
    4.6293   -0.2742    0.6269 C   0  0  0  0  0  0  0  0  0  0  0  0
    4.4735    1.4888    1.0548 S   0  0  0  0  0  0  0  0  0  0  0  0
   -2.8948    2.5798   -0.8816 C   0  0  0  0  0  0  0  0  0  0  0  0
   -2.7831    2.3972   -2.2470 F   0  0  0  0  0  0  0  0  0  0  0  0
   -1.8538    3.3757   -0.4401 F   0  0  0  0  0  0  0  0  0  0  0  0
   -4.0934    3.2108   -0.6033 F   0  0  0  0  0  0  0  0  0  0  0  0
   -5.3546   -1.2641    1.5238 H   0  0  0  0  0  0  0  0  0  0  0  0
   -4.5972   -2.3838    0.3202 H   0  0  0  0  0  0  0  0  0  0  0  0
   -3.9124   -2.2442    1.9916 H   0  0  0  0  0  0  0  0  0  0  0  0
    0.1451    1.2910   -0.7508 H   0  0  0  0  0  0  0  0  0  0  0  0
    2.2128    0.5325   -1.2596 H   0  0  0  0  0  0  0  0  0  0  0  0
    4.1671   -1.6220   -1.0149 H   0  0  0  0  0  0  0  0  0  0  0  0
    4.4801    0.0748   -1.5040 H   0  0  0  0  0  0  0  0  0  0  0  0
    4.1483   -0.8882    1.4171 H   0  0  0  0  0  0  0  0  0  0  0  0
    5.7076   -0.5373    0.5877 H   0  0  0  0  0  0  0  0  0  0  0  0
    5.1447    1.3167    2.2802 H   0  0  0  0  0  0  0  0  0  0  0  0
  1  2  1  0
  2  3  1  0
  3  4  2  0
  4  5  1  0
  5  6  2  0
  6  7  1  0
  7  8  1  0
  8  9  2  0
  8 10  1  0
 10 11  2  0
 10 12  1  0
 12 13  1  0
 13 14  1  0
 14 15  1  0
  4 16  1  0
 16 17  1  0
 16 18  1  0
 16 19  1  0
  6  2  1  0
  9  5  1  0
  1 20  1  0
  1 21  1  0
  1 22  1  0
  9 23  1  0
 12 24  1  0
 13 25  1  0
 13 26  1  0
 14 27  1  0
 14 28  1  0
 15 29  1  0
M  END
$$$$
