
     RDKit          3D

 35 38  0  0  0  0  0  0  0  0999 V2000
    4.9886    1.6716   -2.3814 C   0  0  0  0  0  0  0  0  0  0  0  0
    4.7977    0.3918   -1.7873 O   0  0  0  0  0  0  0  0  0  0  0  0
    3.7226    0.0604   -0.9493 C   0  0  0  0  0  0  0  0  0  0  0  0
    3.6577   -1.2386   -0.4326 C   0  0  0  0  0  0  0  0  0  0  0  0
    2.6055   -1.6181    0.4055 C   0  0  0  0  0  0  0  0  0  0  0  0
    1.5923   -0.7038    0.7310 C   0  0  0  0  0  0  0  0  0  0  0  0
    1.6634    0.6046    0.2273 C   0  0  0  0  0  0  0  0  0  0  0  0
    2.7161    0.9846   -0.6105 C   0  0  0  0  0  0  0  0  0  0  0  0
    0.5200   -1.0959    1.6048 N   0  0  0  0  0  0  0  0  0  0  0  0
    0.6338   -1.8042    2.7566 C   0  0  0  0  0  0  0  0  0  0  0  0
   -0.5549   -2.0121    3.3794 N   0  0  0  0  0  0  0  0  0  0  0  0
   -1.4364   -1.4063    2.5626 C   0  0  0  0  0  0  0  0  0  0  0  0
   -0.7986   -0.8550    1.4902 C   0  0  0  0  0  0  0  0  0  0  0  0
   -1.5007   -0.2244    0.4597 C   0  0  0  0  0  0  0  0  0  0  0  0
   -2.9063   -0.1322    0.5745 C   0  0  0  0  0  0  0  0  0  0  0  0
   -3.5569   -0.6892    1.7072 C   0  0  0  0  0  0  0  0  0  0  0  0
   -2.8179   -1.3402    2.7114 C   0  0  0  0  0  0  0  0  0  0  0  0
   -3.6877    0.5336   -0.4851 C   0  0  0  0  0  0  0  0  0  0  0  0
   -5.0321    0.6684   -0.4717 N   0  0  0  0  0  0  0  0  0  0  0  0
   -5.3349    1.3139   -1.5852 N   0  0  0  0  0  0  0  0  0  0  0  0
   -4.1839    1.5495   -2.2336 C   0  0  0  0  0  0  0  0  0  0  0  0
   -4.0711    2.3271   -3.6662 S   0  0  0  0  0  0  0  0  0  0  0  0
   -3.1628    1.0735   -1.5656 O   0  0  0  0  0  0  0  0  0  0  0  0
    5.9129    1.6526   -2.9944 H   0  0  0  0  0  0  0  0  0  0  0  0
    4.1296    1.9185   -3.0407 H   0  0  0  0  0  0  0  0  0  0  0  0
    5.1006    2.4457   -1.5931 H   0  0  0  0  0  0  0  0  0  0  0  0
    4.4273   -1.9579   -0.6823 H   0  0  0  0  0  0  0  0  0  0  0  0
    2.5725   -2.6295    0.7905 H   0  0  0  0  0  0  0  0  0  0  0  0
    0.9156    1.3379    0.5003 H   0  0  0  0  0  0  0  0  0  0  0  0
    2.7415    1.9996   -0.9828 H   0  0  0  0  0  0  0  0  0  0  0  0
    1.5767   -2.1592    3.1526 H   0  0  0  0  0  0  0  0  0  0  0  0
   -0.9862    0.1654   -0.4082 H   0  0  0  0  0  0  0  0  0  0  0  0
   -4.6332   -0.6295    1.8078 H   0  0  0  0  0  0  0  0  0  0  0  0
   -3.3101   -1.7820    3.5681 H   0  0  0  0  0  0  0  0  0  0  0  0
   -6.3004    1.5792   -1.8812 H   0  0  0  0  0  0  0  0  0  0  0  0
  1  2  1  0
  2  3  1  0
  3  4  2  0
  4  5  1  0
  5  6  2  0
  6  7  1  0
  7  8  2  0
  6  9  1  0
  9 10  1  0
 10 11  2  0
 11 12  1  0
 12 13  2  0
 13 14  1  0
 14 15  2  0
 15 16  1  0
 16 17  2  0
 15 18  1  0
 18 19  2  0
 19 20  1  0
 20 21  1  0
 21 22  2  0
 21 23  1  0
  8  3  1  0
 13  9  1  0
 23 18  1  0
 17 12  1  0
  1 24  1  0
  1 25  1  0
  1 26  1  0
  4 27  1  0
  5 28  1  0
  7 29  1  0
  8 30  1  0
 10 31  1  0
 14 32  1  0
 16 33  1  0
 17 34  1  0
 20 35  1  0
M  END
$$$$
