
     RDKit          3D

 39 41  0  0  0  0  0  0  0  0999 V2000
   -1.0165    0.3363   -1.2611 C   0  0  1  0  0  0  0  0  0  0  0  0
   -0.9403   -1.3467   -0.5609 S   0  0  0  0  0  0  0  0  0  0  0  0
   -2.6747   -1.7162   -1.0446 C   0  0  0  0  0  0  0  0  0  0  0  0
   -3.7066   -0.7780   -0.4211 C   0  0  0  0  0  0  0  0  0  0  0  0
   -5.0775   -1.3005   -0.1991 C   0  0  0  0  0  0  0  0  0  0  0  0
   -5.3138   -2.4652    0.4017 C   0  0  0  0  0  0  0  0  0  0  0  0
   -3.4355    0.5473   -0.2879 C   0  0  0  0  0  0  0  0  0  0  0  0
   -2.1311    1.0064   -0.6438 N   0  0  0  0  0  0  0  0  0  0  0  0
   -1.2094    2.0822   -0.2103 C   0  0  0  0  0  0  0  0  0  0  0  0
   -1.3303    3.1585    0.4309 O   0  0  0  0  0  0  0  0  0  0  0  0
   -0.0607    1.3249   -0.8054 C   0  0  1  0  0  0  0  0  0  0  0  0
    0.8714    0.8501    0.2214 N   0  0  0  0  0  0  0  0  0  0  0  0
    2.0675    0.1353   -0.1240 C   0  0  0  0  0  0  0  0  0  0  0  0
    2.3716   -0.0279   -1.3371 O   0  0  0  0  0  0  0  0  0  0  0  0
    2.9663   -0.3945    0.9286 C   0  0  0  0  0  0  0  0  0  0  0  0
    2.4902   -0.9659    1.9957 N   0  0  0  0  0  0  0  0  0  0  0  0
    1.1423   -1.1483    2.2071 O   0  0  0  0  0  0  0  0  0  0  0  0
    4.4337   -0.3035    0.7592 C   0  0  0  0  0  0  0  0  0  0  0  0
    5.3475   -0.8685    1.6534 C   0  0  0  0  0  0  0  0  0  0  0  0
    6.9021   -0.5266    1.1059 S   0  0  0  0  0  0  0  0  0  0  0  0
    6.3466    0.3208   -0.2320 C   0  0  0  0  0  0  0  0  0  0  0  0
    7.1866    0.9354   -1.2047 N   0  0  0  0  0  0  0  0  0  0  0  0
    4.9995    0.3600   -0.2874 N   0  0  0  0  0  0  0  0  0  0  0  0
   -4.3799    1.5269    0.2998 C   0  0  0  0  0  0  0  0  0  0  0  0
   -4.2597    2.8737   -0.0282 O   0  0  0  0  0  0  0  0  0  0  0  0
   -5.2655    1.1685    1.1223 O   0  0  0  0  0  0  0  0  0  0  0  0
   -1.1257    0.3246   -2.3687 H   0  0  0  0  0  0  0  0  0  0  0  0
   -2.8714   -2.7698   -0.7644 H   0  0  0  0  0  0  0  0  0  0  0  0
   -2.7612   -1.6561   -2.1504 H   0  0  0  0  0  0  0  0  0  0  0  0
   -5.9260   -0.7016   -0.5073 H   0  0  0  0  0  0  0  0  0  0  0  0
   -4.5109   -3.0824    0.7820 H   0  0  0  0  0  0  0  0  0  0  0  0
   -6.3332   -2.7974    0.5494 H   0  0  0  0  0  0  0  0  0  0  0  0
    0.4391    1.8949   -1.6191 H   0  0  0  0  0  0  0  0  0  0  0  0
    0.7286    1.1424    1.2151 H   0  0  0  0  0  0  0  0  0  0  0  0
    0.8189   -1.5984    3.0536 H   0  0  0  0  0  0  0  0  0  0  0  0
    5.1063   -1.4306    2.5459 H   0  0  0  0  0  0  0  0  0  0  0  0
    8.2252    0.8775   -1.1168 H   0  0  0  0  0  0  0  0  0  0  0  0
    6.7687    1.4479   -2.0125 H   0  0  0  0  0  0  0  0  0  0  0  0
   -4.8822    3.5646    0.3733 H   0  0  0  0  0  0  0  0  0  0  0  0
  1  2  1  0
  2  3  1  0
  3  4  1  0
  4  5  1  0
  5  6  2  3
  4  7  2  0
  7  8  1  0
  8  9  1  0
  9 10  2  0
  9 11  1  0
 11 12  1  0
 12 13  1  0
 13 14  2  0
 13 15  1  0
 15 16  2  0
 16 17  1  0
 15 18  1  0
 18 19  2  0
 19 20  1  0
 20 21  1  0
 21 22  1  0
 21 23  2  0
  7 24  1  0
 24 25  1  0
 24 26  2  0
  8  1  1  0
 23 18  1  0
 11  1  1  0
  1 27  1  6
  3 28  1  0
  3 29  1  0
  5 30  1  0
  6 31  1  0
  6 32  1  0
 11 33  1  6
 12 34  1  0
 17 35  1  0
 19 36  1  0
 22 37  1  0
 22 38  1  0
 25 39  1  0
M  END
$$$$
