
     RDKit          3D

 55 56  0  0  0  0  0  0  0  0999 V2000
   -4.0433    4.5340   -0.6403 C   0  0  0  0  0  0  0  0  0  0  0  0
   -3.1548    3.5039   -1.3185 C   0  0  0  0  0  0  0  0  0  0  0  0
   -2.6783    2.5753   -0.3508 O   0  0  0  0  0  0  0  0  0  0  0  0
   -1.8319    1.5125   -0.6796 C   0  0  0  0  0  0  0  0  0  0  0  0
   -1.4666    1.3288   -1.8729 O   0  0  0  0  0  0  0  0  0  0  0  0
   -1.3754    0.5687    0.3974 C   0  0  2  0  0  0  0  0  0  0  0  0
   -2.5415   -0.3548    0.8246 C   0  0  0  0  0  0  0  0  0  0  0  0
   -2.9286   -1.3832   -0.2552 C   0  0  0  0  0  0  0  0  0  0  0  0
   -1.7997   -2.3422   -0.5501 C   0  0  0  0  0  0  0  0  0  0  0  0
   -1.4459   -3.3276    0.3872 C   0  0  0  0  0  0  0  0  0  0  0  0
   -0.3540   -4.1680    0.1487 C   0  0  0  0  0  0  0  0  0  0  0  0
    0.3909   -4.0330   -1.0257 C   0  0  0  0  0  0  0  0  0  0  0  0
    0.0427   -3.0601   -1.9658 C   0  0  0  0  0  0  0  0  0  0  0  0
   -1.0466   -2.2157   -1.7307 C   0  0  0  0  0  0  0  0  0  0  0  0
   -0.8703    1.3499    1.5460 N   0  0  0  0  0  0  0  0  0  0  0  0
    0.5368    1.7608    1.3650 C   0  0  1  0  0  0  0  0  0  0  0  0
    0.8917    2.8269    2.4037 C   0  0  0  0  0  0  0  0  0  0  0  0
    1.4731    0.5700    1.4942 C   0  0  0  0  0  0  0  0  0  0  0  0
    1.5527   -0.0142    2.6100 O   0  0  0  0  0  0  0  0  0  0  0  0
    2.2202    0.0518    0.3705 N   0  0  0  0  0  0  0  0  0  0  0  0
    2.2275    0.6450   -0.9586 C   0  0  0  0  0  0  0  0  0  0  0  0
    2.8813   -0.3772   -1.8783 C   0  0  0  0  0  0  0  0  0  0  0  0
    3.5426   -1.4143   -0.9757 C   0  0  0  0  0  0  0  0  0  0  0  0
    2.9440   -1.2137    0.4193 C   0  0  1  0  0  0  0  0  0  0  0  0
    4.0174   -1.1909    1.4729 C   0  0  0  0  0  0  0  0  0  0  0  0
    4.1978   -2.2965    2.2976 O   0  0  0  0  0  0  0  0  0  0  0  0
    4.7725   -0.1881    1.5917 O   0  0  0  0  0  0  0  0  0  0  0  0
   -4.4168    5.2605   -1.3924 H   0  0  0  0  0  0  0  0  0  0  0  0
   -4.9104    4.0309   -0.1622 H   0  0  0  0  0  0  0  0  0  0  0  0
   -3.4659    5.0811    0.1348 H   0  0  0  0  0  0  0  0  0  0  0  0
   -3.7409    2.9678   -2.0962 H   0  0  0  0  0  0  0  0  0  0  0  0
   -2.2951    4.0195   -1.7989 H   0  0  0  0  0  0  0  0  0  0  0  0
   -0.5672   -0.0777   -0.0033 H   0  0  0  0  0  0  0  0  0  0  0  0
   -3.4330    0.2603    1.0776 H   0  0  0  0  0  0  0  0  0  0  0  0
   -2.2620   -0.9114    1.7456 H   0  0  0  0  0  0  0  0  0  0  0  0
   -3.2525   -0.8576   -1.1796 H   0  0  0  0  0  0  0  0  0  0  0  0
   -3.8060   -1.9634    0.1041 H   0  0  0  0  0  0  0  0  0  0  0  0
   -2.0075   -3.4353    1.3068 H   0  0  0  0  0  0  0  0  0  0  0  0
   -0.0819   -4.9206    0.8774 H   0  0  0  0  0  0  0  0  0  0  0  0
    1.2390   -4.6806   -1.2064 H   0  0  0  0  0  0  0  0  0  0  0  0
    0.6214   -2.9560   -2.8744 H   0  0  0  0  0  0  0  0  0  0  0  0
   -1.2928   -1.4555   -2.4611 H   0  0  0  0  0  0  0  0  0  0  0  0
   -0.9425    0.7932    2.4305 H   0  0  0  0  0  0  0  0  0  0  0  0
    0.6528    2.2533    0.3776 H   0  0  0  0  0  0  0  0  0  0  0  0
    1.9446    3.1562    2.2697 H   0  0  0  0  0  0  0  0  0  0  0  0
    0.2291    3.7097    2.2780 H   0  0  0  0  0  0  0  0  0  0  0  0
    0.7641    2.4332    3.4349 H   0  0  0  0  0  0  0  0  0  0  0  0
    2.8120    1.5900   -0.9406 H   0  0  0  0  0  0  0  0  0  0  0  0
    1.1955    0.8445   -1.3129 H   0  0  0  0  0  0  0  0  0  0  0  0
    2.1049   -0.8692   -2.5041 H   0  0  0  0  0  0  0  0  0  0  0  0
    3.6259    0.1067   -2.5473 H   0  0  0  0  0  0  0  0  0  0  0  0
    4.6434   -1.2476   -0.9807 H   0  0  0  0  0  0  0  0  0  0  0  0
    3.3430   -2.4438   -1.3463 H   0  0  0  0  0  0  0  0  0  0  0  0
    2.2224   -2.0324    0.6374 H   0  0  0  0  0  0  0  0  0  0  0  0
    4.9223   -2.3037    3.0055 H   0  0  0  0  0  0  0  0  0  0  0  0
  1  2  1  0
  2  3  1  0
  3  4  1  0
  4  5  2  0
  4  6  1  0
  6  7  1  0
  7  8  1  0
  8  9  1  0
  9 10  2  0
 10 11  1  0
 11 12  2  0
 12 13  1  0
 13 14  2  0
  6 15  1  0
 15 16  1  0
 16 17  1  0
 16 18  1  0
 18 19  2  0
 18 20  1  0
 20 21  1  0
 21 22  1  0
 22 23  1  0
 23 24  1  0
 24 25  1  0
 25 26  1  0
 25 27  2  0
 14  9  1  0
 24 20  1  0
  1 28  1  0
  1 29  1  0
  1 30  1  0
  2 31  1  0
  2 32  1  0
  6 33  1  6
  7 34  1  0
  7 35  1  0
  8 36  1  0
  8 37  1  0
 10 38  1  0
 11 39  1  0
 12 40  1  0
 13 41  1  0
 14 42  1  0
 15 43  1  0
 16 44  1  6
 17 45  1  0
 17 46  1  0
 17 47  1  0
 21 48  1  0
 21 49  1  0
 22 50  1  0
 22 51  1  0
 23 52  1  0
 23 53  1  0
 24 54  1  1
 26 55  1  0
M  END
$$$$
