
     RDKit          3D

104109  0  0  0  0  0  0  0  0999 V2000
   -4.8587   -2.4110    0.4245 C   0  0  0  0  0  0  0  0  0  0  0  0
   -5.3261   -1.0698    0.4943 O   0  0  0  0  0  0  0  0  0  0  0  0
   -6.5327   -0.6604   -0.0794 C   0  0  0  0  0  0  0  0  0  0  0  0
   -7.2975   -1.5008   -0.6281 O   0  0  0  0  0  0  0  0  0  0  0  0
   -6.8793    0.7287   -0.0558 N   0  0  0  0  0  0  0  0  0  0  0  0
   -8.0654    1.2671   -0.7312 C   0  0  1  0  0  0  0  0  0  0  0  0
   -9.3211    1.1486    0.1781 C   0  0  0  0  0  0  0  0  0  0  0  0
   -9.1728    1.8344    1.5470 C   0  0  0  0  0  0  0  0  0  0  0  0
  -10.5837    1.6479   -0.5394 C   0  0  0  0  0  0  0  0  0  0  0  0
   -7.7786    2.6801   -1.2089 C   0  0  0  0  0  0  0  0  0  0  0  0
   -7.6277    3.5944   -0.3539 O   0  0  0  0  0  0  0  0  0  0  0  0
   -7.6086    3.0008   -2.6072 N   0  0  0  0  0  0  0  0  0  0  0  0
   -7.5406    4.3775   -3.0701 C   0  0  0  0  0  0  0  0  0  0  0  0
   -7.6319    4.3121   -4.5878 C   0  0  0  0  0  0  0  0  0  0  0  0
   -7.2696    2.8799   -4.9625 C   0  0  0  0  0  0  0  0  0  0  0  0
   -7.5457    2.0450   -3.7107 C   0  0  1  0  0  0  0  0  0  0  0  0
   -6.4677    1.0133   -3.5055 C   0  0  0  0  0  0  0  0  0  0  0  0
   -6.5691   -0.2512   -3.9658 N   0  0  0  0  0  0  0  0  0  0  0  0
   -5.4315   -0.8448   -3.5556 C   0  0  0  0  0  0  0  0  0  0  0  0
   -4.6641    0.0674   -2.8562 C   0  0  0  0  0  0  0  0  0  0  0  0
   -5.3166    1.2437   -2.8432 N   0  0  0  0  0  0  0  0  0  0  0  0
   -3.3885   -0.2059   -2.1516 C   0  0  0  0  0  0  0  0  0  0  0  0
   -2.9623    0.6234   -1.1000 C   0  0  0  0  0  0  0  0  0  0  0  0
   -1.7867    0.3374   -0.4011 C   0  0  0  0  0  0  0  0  0  0  0  0
   -1.0082   -0.7821   -0.7396 C   0  0  0  0  0  0  0  0  0  0  0  0
   -1.4295   -1.6068   -1.7961 C   0  0  0  0  0  0  0  0  0  0  0  0
   -2.6070   -1.3231   -2.4930 C   0  0  0  0  0  0  0  0  0  0  0  0
    0.2357   -1.0914    0.0100 C   0  0  0  0  0  0  0  0  0  0  0  0
    1.3864   -1.5317   -0.6653 C   0  0  0  0  0  0  0  0  0  0  0  0
    2.5578   -1.8207    0.0399 C   0  0  0  0  0  0  0  0  0  0  0  0
    2.6049   -1.6778    1.4373 C   0  0  0  0  0  0  0  0  0  0  0  0
    1.4533   -1.2375    2.1123 C   0  0  0  0  0  0  0  0  0  0  0  0
    0.2822   -0.9483    1.4069 C   0  0  0  0  0  0  0  0  0  0  0  0
    3.8542   -1.9642    2.1839 C   0  0  0  0  0  0  0  0  0  0  0  0
    4.1966   -1.4855    3.4343 C   0  0  0  0  0  0  0  0  0  0  0  0
    5.4415   -1.8953    3.7438 N   0  0  0  0  0  0  0  0  0  0  0  0
    5.8196   -2.6437    2.6842 C   0  0  0  0  0  0  0  0  0  0  0  0
    4.8846   -2.6917    1.7162 N   0  0  0  0  0  0  0  0  0  0  0  0
    7.2067   -3.2024    2.5124 C   0  0  2  0  0  0  0  0  0  0  0  0
    7.8311   -3.6345    3.8405 C   0  0  0  0  0  0  0  0  0  0  0  0
    8.7297   -2.4768    4.2655 C   0  0  0  0  0  0  0  0  0  0  0  0
    9.0540   -1.7129    2.9869 C   0  0  0  0  0  0  0  0  0  0  0  0
    8.0799   -2.1568    2.0024 N   0  0  0  0  0  0  0  0  0  0  0  0
    8.0392   -1.7158    0.6314 C   0  0  0  0  0  0  0  0  0  0  0  0
    7.6593   -2.5203   -0.2624 O   0  0  0  0  0  0  0  0  0  0  0  0
    8.3782   -0.2971    0.2262 C   0  0  1  0  0  0  0  0  0  0  0  0
    7.6626    0.6423    1.0981 N   0  0  0  0  0  0  0  0  0  0  0  0
    6.2451    0.8348    1.0135 C   0  0  0  0  0  0  0  0  0  0  0  0
    5.5671    0.2071    0.1536 O   0  0  0  0  0  0  0  0  0  0  0  0
    5.6229    1.7287    1.8889 O   0  0  0  0  0  0  0  0  0  0  0  0
    4.2285    2.0068    1.8380 C   0  0  0  0  0  0  0  0  0  0  0  0
    9.9078   -0.0102    0.2152 C   0  0  0  0  0  0  0  0  0  0  0  0
   10.6841   -1.0723   -0.5815 C   0  0  0  0  0  0  0  0  0  0  0  0
   10.1947    1.3784   -0.3796 C   0  0  0  0  0  0  0  0  0  0  0  0
   -3.8706   -2.4783    0.9244 H   0  0  0  0  0  0  0  0  0  0  0  0
   -5.5720   -3.0898    0.9378 H   0  0  0  0  0  0  0  0  0  0  0  0
   -4.7443   -2.7183   -0.6368 H   0  0  0  0  0  0  0  0  0  0  0  0
   -6.2431    1.3780    0.4606 H   0  0  0  0  0  0  0  0  0  0  0  0
   -8.2784    0.6359   -1.6168 H   0  0  0  0  0  0  0  0  0  0  0  0
   -9.4737    0.0647    0.3798 H   0  0  0  0  0  0  0  0  0  0  0  0
  -10.0222    1.5449    2.2019 H   0  0  0  0  0  0  0  0  0  0  0  0
   -9.1815    2.9393    1.4531 H   0  0  0  0  0  0  0  0  0  0  0  0
   -8.2368    1.5162    2.0511 H   0  0  0  0  0  0  0  0  0  0  0  0
  -10.7094    1.1195   -1.5085 H   0  0  0  0  0  0  0  0  0  0  0  0
  -11.4815    1.4460    0.0829 H   0  0  0  0  0  0  0  0  0  0  0  0
  -10.5243    2.7403   -0.7318 H   0  0  0  0  0  0  0  0  0  0  0  0
   -6.5738    4.8273   -2.7560 H   0  0  0  0  0  0  0  0  0  0  0  0
   -8.3859    4.9703   -2.6572 H   0  0  0  0  0  0  0  0  0  0  0  0
   -6.9464    5.0442   -5.0673 H   0  0  0  0  0  0  0  0  0  0  0  0
   -8.6759    4.5248   -4.9076 H   0  0  0  0  0  0  0  0  0  0  0  0
   -7.8748    2.5252   -5.8250 H   0  0  0  0  0  0  0  0  0  0  0  0
   -6.1921    2.8466   -5.2423 H   0  0  0  0  0  0  0  0  0  0  0  0
   -8.5337    1.5436   -3.8107 H   0  0  0  0  0  0  0  0  0  0  0  0
   -5.2040   -1.8880   -3.7266 H   0  0  0  0  0  0  0  0  0  0  0  0
   -5.0155    2.1419   -2.4049 H   0  0  0  0  0  0  0  0  0  0  0  0
   -3.5476    1.4797   -0.7935 H   0  0  0  0  0  0  0  0  0  0  0  0
   -1.4821    0.9988    0.4003 H   0  0  0  0  0  0  0  0  0  0  0  0
   -0.8590   -2.4851   -2.0710 H   0  0  0  0  0  0  0  0  0  0  0  0
   -2.9014   -1.9807   -3.3000 H   0  0  0  0  0  0  0  0  0  0  0  0
    1.3882   -1.6309   -1.7436 H   0  0  0  0  0  0  0  0  0  0  0  0
    3.4305   -2.1315   -0.5181 H   0  0  0  0  0  0  0  0  0  0  0  0
    1.4483   -1.1289    3.1887 H   0  0  0  0  0  0  0  0  0  0  0  0
   -0.5941   -0.6301    1.9578 H   0  0  0  0  0  0  0  0  0  0  0  0
    3.6030   -0.8398    4.0668 H   0  0  0  0  0  0  0  0  0  0  0  0
    4.9665   -3.1767    0.7956 H   0  0  0  0  0  0  0  0  0  0  0  0
    7.1844   -4.0690    1.8150 H   0  0  0  0  0  0  0  0  0  0  0  0
    7.0769   -3.8774    4.6211 H   0  0  0  0  0  0  0  0  0  0  0  0
    8.4611   -4.5358    3.6710 H   0  0  0  0  0  0  0  0  0  0  0  0
    9.6525   -2.8432    4.7654 H   0  0  0  0  0  0  0  0  0  0  0  0
    8.1736   -1.8154    4.9659 H   0  0  0  0  0  0  0  0  0  0  0  0
    8.9680   -0.6215    3.1652 H   0  0  0  0  0  0  0  0  0  0  0  0
   10.0779   -1.9694    2.6395 H   0  0  0  0  0  0  0  0  0  0  0  0
    8.0137   -0.1440   -0.8156 H   0  0  0  0  0  0  0  0  0  0  0  0
    8.1856    1.1928    1.8159 H   0  0  0  0  0  0  0  0  0  0  0  0
    3.9619    2.4331    0.8478 H   0  0  0  0  0  0  0  0  0  0  0  0
    3.6466    1.0788    2.0132 H   0  0  0  0  0  0  0  0  0  0  0  0
    3.9744    2.7432    2.6275 H   0  0  0  0  0  0  0  0  0  0  0  0
   10.2985   -0.0096    1.2535 H   0  0  0  0  0  0  0  0  0  0  0  0
   10.2924   -1.1471   -1.6187 H   0  0  0  0  0  0  0  0  0  0  0  0
   10.6029   -2.0653   -0.0915 H   0  0  0  0  0  0  0  0  0  0  0  0
   11.7632   -0.8114   -0.6241 H   0  0  0  0  0  0  0  0  0  0  0  0
    9.8384    1.4364   -1.4307 H   0  0  0  0  0  0  0  0  0  0  0  0
   11.2860    1.5861   -0.3618 H   0  0  0  0  0  0  0  0  0  0  0  0
    9.6928    2.1726    0.2112 H   0  0  0  0  0  0  0  0  0  0  0  0
  1  2  1  0
  2  3  1  0
  3  4  2  0
  3  5  1  0
  5  6  1  0
  6  7  1  0
  7  8  1  0
  7  9  1  0
  6 10  1  0
 10 11  2  0
 10 12  1  0
 12 13  1  0
 13 14  1  0
 14 15  1  0
 15 16  1  0
 16 17  1  0
 17 18  2  0
 18 19  1  0
 19 20  2  0
 20 21  1  0
 20 22  1  0
 22 23  2  0
 23 24  1  0
 24 25  2  0
 25 26  1  0
 26 27  2  0
 25 28  1  0
 28 29  2  0
 29 30  1  0
 30 31  2  0
 31 32  1  0
 32 33  2  0
 31 34  1  0
 34 35  2  0
 35 36  1  0
 36 37  2  0
 37 38  1  0
 37 39  1  0
 39 40  1  0
 40 41  1  0
 41 42  1  0
 42 43  1  0
 43 44  1  0
 44 45  2  0
 44 46  1  0
 46 47  1  0
 47 48  1  0
 48 49  2  0
 48 50  1  0
 50 51  1  0
 46 52  1  0
 52 53  1  0
 52 54  1  0
 16 12  1  0
 21 17  1  0
 27 22  1  0
 33 28  1  0
 38 34  1  0
 43 39  1  0
  1 55  1  0
  1 56  1  0
  1 57  1  0
  5 58  1  0
  6 59  1  6
  7 60  1  0
  8 61  1  0
  8 62  1  0
  8 63  1  0
  9 64  1  0
  9 65  1  0
  9 66  1  0
 13 67  1  0
 13 68  1  0
 14 69  1  0
 14 70  1  0
 15 71  1  0
 15 72  1  0
 16 73  1  6
 19 74  1  0
 21 75  1  0
 23 76  1  0
 24 77  1  0
 26 78  1  0
 27 79  1  0
 29 80  1  0
 30 81  1  0
 32 82  1  0
 33 83  1  0
 35 84  1  0
 38 85  1  0
 39 86  1  6
 40 87  1  0
 40 88  1  0
 41 89  1  0
 41 90  1  0
 42 91  1  0
 42 92  1  0
 46 93  1  6
 47 94  1  0
 51 95  1  0
 51 96  1  0
 51 97  1  0
 52 98  1  0
 53 99  1  0
 53100  1  0
 53101  1  0
 54102  1  0
 54103  1  0
 54104  1  0
M  END
$$$$
