
     RDKit          3D

 15 16  0  0  0  0  0  0  0  0999 V2000
   -3.1717   -1.4507   -0.2042 O   0  0  0  0  0  0  0  0  0  0  0  0
   -2.0813   -0.8268   -0.1190 C   0  0  0  0  0  0  0  0  0  0  0  0
   -2.0885    0.5429    0.0448 N   0  0  0  0  0  0  0  0  0  0  0  0
   -0.9306    1.2683    0.1428 C   0  0  0  0  0  0  0  0  0  0  0  0
   -0.9589    2.5189    0.2922 O   0  0  0  0  0  0  0  0  0  0  0  0
    0.2660    0.5813    0.0721 C   0  0  0  0  0  0  0  0  0  0  0  0
    1.6050    0.9058    0.1239 C   0  0  0  0  0  0  0  0  0  0  0  0
    2.3176   -0.2446   -0.0069 N   0  0  0  0  0  0  0  0  0  0  0  0
    1.5028   -1.2884   -0.1397 N   0  0  0  0  0  0  0  0  0  0  0  0
    0.2478   -0.8244   -0.0963 C   0  0  0  0  0  0  0  0  0  0  0  0
   -0.9038   -1.5229   -0.1909 N   0  0  0  0  0  0  0  0  0  0  0  0
   -3.0052    1.0434    0.0959 H   0  0  0  0  0  0  0  0  0  0  0  0
    2.0338    1.8917    0.2460 H   0  0  0  0  0  0  0  0  0  0  0  0
    3.3594   -0.3141   -0.0052 H   0  0  0  0  0  0  0  0  0  0  0  0
    1.8077   -2.2803   -0.2554 H   0  0  0  0  0  0  0  0  0  0  0  0
  1  2  2  0
  2  3  1  0
  3  4  1  0
  4  5  2  0
  4  6  1  0
  6  7  2  0
  7  8  1  0
  8  9  1  0
  9 10  1  0
 10 11  2  0
 11  2  1  0
 10  6  1  0
  3 12  1  0
  7 13  1  0
  8 14  1  0
  9 15  1  0
M  END
$$$$
