
     RDKit          3D

 43 44  0  0  0  0  0  0  0  0999 V2000
    5.4574    3.0622    1.8753 O   0  0  0  0  0  0  0  0  0  0  0  0
    6.4789    2.1658    1.5774 C   0  0  0  0  0  0  0  0  0  0  0  0
    7.5323    2.1580    2.2690 O   0  0  0  0  0  0  0  0  0  0  0  0
    6.3041    1.1806    0.4657 C   0  0  0  0  0  0  0  0  0  0  0  0
    5.6178   -0.0895    0.9795 C   0  0  0  0  0  0  0  0  0  0  0  0
    5.4435   -1.1287   -0.1347 C   0  0  0  0  0  0  0  0  0  0  0  0
    4.6264   -0.6244   -1.1927 O   0  0  0  0  0  0  0  0  0  0  0  0
    3.2337   -0.4502   -1.1389 C   0  0  0  0  0  0  0  0  0  0  0  0
    2.4497   -0.9020   -0.0618 C   0  0  0  0  0  0  0  0  0  0  0  0
    1.0672   -0.7011   -0.0633 C   0  0  0  0  0  0  0  0  0  0  0  0
    0.4382   -0.0594   -1.1438 C   0  0  0  0  0  0  0  0  0  0  0  0
   -0.9814    0.1738   -1.1302 N   0  0  0  0  0  0  0  0  0  0  0  0
   -1.9403   -0.7828   -0.6540 C   0  0  0  0  0  0  0  0  0  0  0  0
   -1.5836   -1.9661   -0.4017 O   0  0  0  0  0  0  0  0  0  0  0  0
   -3.3105   -0.3867   -0.4883 N   0  0  0  0  0  0  0  0  0  0  0  0
   -4.3631   -1.2859   -0.1023 C   0  0  0  0  0  0  0  0  0  0  0  0
   -4.1815   -2.5333   -0.1444 O   0  0  0  0  0  0  0  0  0  0  0  0
   -5.6925   -0.7650    0.2828 C   0  0  0  0  0  0  0  0  0  0  0  0
   -6.8414   -1.3826   -0.2416 C   0  0  0  0  0  0  0  0  0  0  0  0
   -8.1144   -0.9090    0.0848 C   0  0  0  0  0  0  0  0  0  0  0  0
   -8.2567    0.1802    0.9470 C   0  0  0  0  0  0  0  0  0  0  0  0
   -9.8565    0.7714    1.3574 Cl  0  0  0  0  0  0  0  0  0  0  0  0
   -7.1241    0.7906    1.4924 C   0  0  0  0  0  0  0  0  0  0  0  0
   -5.8427    0.3243    1.1719 C   0  0  0  0  0  0  0  0  0  0  0  0
   -4.4671    1.0767    1.9748 Cl  0  0  0  0  0  0  0  0  0  0  0  0
    1.2250    0.4024   -2.2164 C   0  0  0  0  0  0  0  0  0  0  0  0
    0.5001    1.2096   -3.6013 Cl  0  0  0  0  0  0  0  0  0  0  0  0
    2.6094    0.1972   -2.2101 C   0  0  0  0  0  0  0  0  0  0  0  0
    5.5531    3.7248    2.6355 H   0  0  0  0  0  0  0  0  0  0  0  0
    7.2980    0.9272    0.0361 H   0  0  0  0  0  0  0  0  0  0  0  0
    5.6891    1.6475   -0.3337 H   0  0  0  0  0  0  0  0  0  0  0  0
    4.6280    0.1710    1.4113 H   0  0  0  0  0  0  0  0  0  0  0  0
    6.2349   -0.5402    1.7876 H   0  0  0  0  0  0  0  0  0  0  0  0
    6.4416   -1.3809   -0.5519 H   0  0  0  0  0  0  0  0  0  0  0  0
    5.0180   -2.0706    0.2715 H   0  0  0  0  0  0  0  0  0  0  0  0
    2.8936   -1.4061    0.7844 H   0  0  0  0  0  0  0  0  0  0  0  0
    0.4914   -1.0286    0.7925 H   0  0  0  0  0  0  0  0  0  0  0  0
   -1.3452    1.0639   -1.5381 H   0  0  0  0  0  0  0  0  0  0  0  0
   -3.5563    0.6113   -0.6754 H   0  0  0  0  0  0  0  0  0  0  0  0
   -6.7520   -2.2234   -0.9188 H   0  0  0  0  0  0  0  0  0  0  0  0
   -8.9894   -1.3891   -0.3347 H   0  0  0  0  0  0  0  0  0  0  0  0
   -7.2403    1.6214    2.1772 H   0  0  0  0  0  0  0  0  0  0  0  0
    3.2075    0.5457   -3.0430 H   0  0  0  0  0  0  0  0  0  0  0  0
  1  2  1  0
  2  3  2  0
  2  4  1  0
  4  5  1  0
  5  6  1  0
  6  7  1  0
  7  8  1  0
  8  9  2  0
  9 10  1  0
 10 11  2  0
 11 12  1  0
 12 13  1  0
 13 14  2  0
 13 15  1  0
 15 16  1  0
 16 17  2  0
 16 18  1  0
 18 19  2  0
 19 20  1  0
 20 21  2  0
 21 22  1  0
 21 23  1  0
 23 24  2  0
 24 25  1  0
 11 26  1  0
 26 27  1  0
 26 28  2  0
 28  8  1  0
 24 18  1  0
  1 29  1  0
  4 30  1  0
  4 31  1  0
  5 32  1  0
  5 33  1  0
  6 34  1  0
  6 35  1  0
  9 36  1  0
 10 37  1  0
 12 38  1  0
 15 39  1  0
 19 40  1  0
 20 41  1  0
 23 42  1  0
 28 43  1  0
M  END
$$$$
