
     RDKit          3D

 42 44  0  0  0  0  0  0  0  0999 V2000
   -1.9239   -0.6559   -0.9626 C   0  0  1  0  0  0  0  0  0  0  0  0
   -1.9234   -1.8315    0.4335 S   0  0  0  0  0  0  0  0  0  0  0  0
   -3.7585   -1.9240    0.4584 C   0  0  0  0  0  0  0  0  0  0  0  0
   -4.4414   -0.5846    0.7136 C   0  0  0  0  0  0  0  0  0  0  0  0
   -5.7329   -0.6085    1.4932 C   0  0  0  0  0  0  0  0  0  0  0  0
   -3.9516    0.5580    0.1608 C   0  0  0  0  0  0  0  0  0  0  0  0
   -2.7290    0.4729   -0.5734 N   0  0  0  0  0  0  0  0  0  0  0  0
   -1.5732    1.3575   -0.8519 C   0  0  0  0  0  0  0  0  0  0  0  0
   -1.3583    2.5960   -0.7868 O   0  0  0  0  0  0  0  0  0  0  0  0
   -0.7449    0.1540   -1.1867 C   0  0  1  0  0  0  0  0  0  0  0  0
    0.3331   -0.0548   -0.2160 N   0  0  0  0  0  0  0  0  0  0  0  0
    1.3096   -1.0937   -0.3976 C   0  0  0  0  0  0  0  0  0  0  0  0
    1.2642   -1.8171   -1.4301 O   0  0  0  0  0  0  0  0  0  0  0  0
    2.4255   -1.3251    0.5991 C   0  0  2  0  0  0  0  0  0  0  0  0
    1.9985   -1.1207    1.9873 N   0  0  0  0  0  0  0  0  0  0  0  0
    3.6363   -0.4724    0.2735 C   0  0  0  0  0  0  0  0  0  0  0  0
    3.5528    0.9332    0.2497 C   0  0  0  0  0  0  0  0  0  0  0  0
    4.6787    1.7056   -0.0503 C   0  0  0  0  0  0  0  0  0  0  0  0
    5.9019    1.0895   -0.3281 C   0  0  0  0  0  0  0  0  0  0  0  0
    7.0150    1.8724   -0.6256 O   0  0  0  0  0  0  0  0  0  0  0  0
    5.9966   -0.3075   -0.3042 C   0  0  0  0  0  0  0  0  0  0  0  0
    4.8728   -1.0834   -0.0047 C   0  0  0  0  0  0  0  0  0  0  0  0
   -4.5733    1.8962    0.3194 C   0  0  0  0  0  0  0  0  0  0  0  0
   -4.2780    2.8971   -0.6009 O   0  0  0  0  0  0  0  0  0  0  0  0
   -5.3434    2.1569    1.2820 O   0  0  0  0  0  0  0  0  0  0  0  0
   -2.3123   -1.1158   -1.8988 H   0  0  0  0  0  0  0  0  0  0  0  0
   -4.0381   -2.6556    1.2452 H   0  0  0  0  0  0  0  0  0  0  0  0
   -4.1134   -2.3288   -0.5131 H   0  0  0  0  0  0  0  0  0  0  0  0
   -5.6044   -0.0736    2.4572 H   0  0  0  0  0  0  0  0  0  0  0  0
   -6.0488   -1.6474    1.7246 H   0  0  0  0  0  0  0  0  0  0  0  0
   -6.5478   -0.1407    0.9011 H   0  0  0  0  0  0  0  0  0  0  0  0
   -0.3882    0.1769   -2.2398 H   0  0  0  0  0  0  0  0  0  0  0  0
    0.3964    0.5803    0.6099 H   0  0  0  0  0  0  0  0  0  0  0  0
    2.7104   -2.3978    0.5124 H   0  0  0  0  0  0  0  0  0  0  0  0
    1.8190   -0.1095    2.1782 H   0  0  0  0  0  0  0  0  0  0  0  0
    1.1070   -1.6430    2.1521 H   0  0  0  0  0  0  0  0  0  0  0  0
    2.6196    1.4360    0.4624 H   0  0  0  0  0  0  0  0  0  0  0  0
    4.6002    2.7853   -0.0664 H   0  0  0  0  0  0  0  0  0  0  0  0
    7.9156    1.4558   -0.8311 H   0  0  0  0  0  0  0  0  0  0  0  0
    6.9404   -0.7933   -0.5171 H   0  0  0  0  0  0  0  0  0  0  0  0
    4.9704   -2.1618    0.0087 H   0  0  0  0  0  0  0  0  0  0  0  0
   -4.6794    3.8228   -0.5103 H   0  0  0  0  0  0  0  0  0  0  0  0
  1  2  1  0
  2  3  1  0
  3  4  1  0
  4  5  1  0
  4  6  2  0
  6  7  1  0
  7  8  1  0
  8  9  2  0
  8 10  1  0
 10 11  1  0
 11 12  1  0
 12 13  2  0
 12 14  1  0
 14 15  1  0
 14 16  1  0
 16 17  2  0
 17 18  1  0
 18 19  2  0
 19 20  1  0
 19 21  1  0
 21 22  2  0
  6 23  1  0
 23 24  1  0
 23 25  2  0
  7  1  1  0
 22 16  1  0
 10  1  1  0
  1 26  1  6
  3 27  1  0
  3 28  1  0
  5 29  1  0
  5 30  1  0
  5 31  1  0
 10 32  1  6
 11 33  1  0
 14 34  1  1
 15 35  1  0
 15 36  1  0
 17 37  1  0
 18 38  1  0
 20 39  1  0
 21 40  1  0
 22 41  1  0
 24 42  1  0
M  END
$$$$
