
     RDKit          3D

 37 38  0  0  0  0  0  0  0  0999 V2000
    2.6213    0.6317    0.1746 N   0  0  0  0  0  0  0  0  0  0  0  0
    1.3836   -0.1349   -0.0001 C   0  0  1  0  0  0  0  0  0  0  0  0
    0.4686    0.6181   -0.9933 C   0  0  0  0  0  0  0  0  0  0  0  0
   -0.9355    0.0465   -1.0590 C   0  0  0  0  0  0  0  0  0  0  0  0
   -1.2685   -0.7647   -2.1589 C   0  0  0  0  0  0  0  0  0  0  0  0
   -2.5318   -1.3428   -2.2673 C   0  0  0  0  0  0  0  0  0  0  0  0
   -3.4912   -1.1245   -1.2825 C   0  0  0  0  0  0  0  0  0  0  0  0
   -3.1961   -0.3193   -0.1745 C   0  0  0  0  0  0  0  0  0  0  0  0
   -4.1721   -0.1052    0.8118 C   0  0  0  0  0  0  0  0  0  0  0  0
   -3.8910    0.6963    1.9179 C   0  0  0  0  0  0  0  0  0  0  0  0
   -2.6377    1.2921    2.0496 C   0  0  0  0  0  0  0  0  0  0  0  0
   -1.6546    1.0905    1.0780 C   0  0  0  0  0  0  0  0  0  0  0  0
   -1.9117    0.2794   -0.0497 C   0  0  0  0  0  0  0  0  0  0  0  0
    1.7416   -1.6570   -0.4645 B   0  0  0  0  0  4  0  0  0  0  0  0
    2.7836   -2.2134    0.4312 O   0  0  0  0  0  0  0  0  0  0  0  0
    0.5270   -2.4924   -0.3570 O   0  0  0  0  0  0  0  0  0  0  0  0
    2.2208   -1.6548   -1.8664 O   0  0  0  0  0  0  0  0  0  0  0  0
    2.8502    1.4978    1.2955 C   0  0  0  0  0  0  0  0  0  0  0  0
    4.0951    2.3211    1.3560 C   0  0  0  0  0  0  0  0  0  0  0  0
    1.9970    1.5928    2.2188 O   0  0  0  0  0  0  0  0  0  0  0  0
    3.3070    0.6588   -0.6149 H   0  0  0  0  0  0  0  0  0  0  0  0
    0.8628   -0.2276    0.9767 H   0  0  0  0  0  0  0  0  0  0  0  0
    0.9371    0.6195   -2.0022 H   0  0  0  0  0  0  0  0  0  0  0  0
    0.4117    1.6909   -0.7117 H   0  0  0  0  0  0  0  0  0  0  0  0
   -0.5401   -0.9612   -2.9361 H   0  0  0  0  0  0  0  0  0  0  0  0
   -2.7671   -1.9672   -3.1196 H   0  0  0  0  0  0  0  0  0  0  0  0
   -4.4663   -1.5856   -1.3872 H   0  0  0  0  0  0  0  0  0  0  0  0
   -5.1530   -0.5580    0.7265 H   0  0  0  0  0  0  0  0  0  0  0  0
   -4.6477    0.8574    2.6748 H   0  0  0  0  0  0  0  0  0  0  0  0
   -2.4261    1.9148    2.9095 H   0  0  0  0  0  0  0  0  0  0  0  0
   -0.7018    1.5767    1.2261 H   0  0  0  0  0  0  0  0  0  0  0  0
    3.6538   -1.8537    0.1204 H   0  0  0  0  0  0  0  0  0  0  0  0
    0.8067   -3.4222   -0.5571 H   0  0  0  0  0  0  0  0  0  0  0  0
    2.4917   -2.5862   -2.0714 H   0  0  0  0  0  0  0  0  0  0  0  0
    4.2186    2.7686    2.3651 H   0  0  0  0  0  0  0  0  0  0  0  0
    4.9770    1.6831    1.1379 H   0  0  0  0  0  0  0  0  0  0  0  0
    4.0369    3.1342    0.6030 H   0  0  0  0  0  0  0  0  0  0  0  0
  1  2  1  0
  2  3  1  0
  3  4  1  0
  4  5  2  0
  5  6  1  0
  6  7  2  0
  7  8  1  0
  8  9  2  0
  9 10  1  0
 10 11  2  0
 11 12  1  0
 12 13  2  0
  2 14  1  0
 14 15  1  0
 14 16  1  0
 14 17  1  0
  1 18  1  0
 18 19  1  0
 18 20  2  0
 13  4  1  0
 13  8  1  0
  1 21  1  0
  2 22  1  1
  3 23  1  0
  3 24  1  0
  5 25  1  0
  6 26  1  0
  7 27  1  0
  9 28  1  0
 10 29  1  0
 11 30  1  0
 12 31  1  0
 15 32  1  0
 16 33  1  0
 17 34  1  0
 19 35  1  0
 19 36  1  0
 19 37  1  0
M  CHG  1  14  -1
M  END
$$$$
