
     RDKit          3D

 36 38  0  0  0  0  0  0  0  0999 V2000
   -0.3046    3.8169   -1.2086 C   0  0  0  0  0  0  0  0  0  0  0  0
   -1.2465    2.6571   -1.2107 C   0  0  0  0  0  0  0  0  0  0  0  0
   -1.0322    1.3970   -0.6790 C   0  0  0  0  0  0  0  0  0  0  0  0
   -2.2060    0.7121   -0.9711 C   0  0  0  0  0  0  0  0  0  0  0  0
   -3.0449    1.5400   -1.6270 N   0  0  0  0  0  0  0  0  0  0  0  0
   -2.4433    2.6878   -1.7477 O   0  0  0  0  0  0  0  0  0  0  0  0
   -2.5615   -0.6791   -0.6157 C   0  0  0  0  0  0  0  0  0  0  0  0
   -3.3753   -1.4322   -1.4791 C   0  0  0  0  0  0  0  0  0  0  0  0
   -3.7276   -2.7454   -1.1524 C   0  0  0  0  0  0  0  0  0  0  0  0
   -3.2817   -3.3135    0.0434 C   0  0  0  0  0  0  0  0  0  0  0  0
   -2.4892   -2.5666    0.9183 C   0  0  0  0  0  0  0  0  0  0  0  0
   -2.1350   -1.2530    0.5960 C   0  0  0  0  0  0  0  0  0  0  0  0
    0.2152    0.8771   -0.0797 C   0  0  0  0  0  0  0  0  0  0  0  0
    0.7628   -0.3365   -0.5256 C   0  0  0  0  0  0  0  0  0  0  0  0
    1.9403   -0.8306    0.0422 C   0  0  0  0  0  0  0  0  0  0  0  0
    2.5839   -0.1188    1.0627 C   0  0  0  0  0  0  0  0  0  0  0  0
    2.0470    1.0987    1.5015 C   0  0  0  0  0  0  0  0  0  0  0  0
    0.8687    1.5934    0.9350 C   0  0  0  0  0  0  0  0  0  0  0  0
    4.0743   -0.7371    1.7662 S   0  0  0  0  0  6  0  0  0  0  0  0
    5.4212   -0.1871    0.8329 N   0  0  0  0  0  0  0  0  0  0  0  0
    4.0453   -2.2401    1.7765 O   0  0  0  0  0  0  0  0  0  0  0  0
    4.2117   -0.2479    3.1808 O   0  0  0  0  0  0  0  0  0  0  0  0
   -0.5972    4.5396   -1.9985 H   0  0  0  0  0  0  0  0  0  0  0  0
   -0.3423    4.3257   -0.2234 H   0  0  0  0  0  0  0  0  0  0  0  0
    0.7307    3.4701   -1.4094 H   0  0  0  0  0  0  0  0  0  0  0  0
   -3.7269   -1.0086   -2.4119 H   0  0  0  0  0  0  0  0  0  0  0  0
   -4.3468   -3.3227   -1.8268 H   0  0  0  0  0  0  0  0  0  0  0  0
   -3.5560   -4.3297    0.2953 H   0  0  0  0  0  0  0  0  0  0  0  0
   -2.1551   -3.0030    1.8507 H   0  0  0  0  0  0  0  0  0  0  0  0
   -1.5459   -0.6831    1.3024 H   0  0  0  0  0  0  0  0  0  0  0  0
    0.2831   -0.8968   -1.3186 H   0  0  0  0  0  0  0  0  0  0  0  0
    2.3515   -1.7654   -0.3171 H   0  0  0  0  0  0  0  0  0  0  0  0
    2.5381    1.6649    2.2826 H   0  0  0  0  0  0  0  0  0  0  0  0
    0.4589    2.5260    1.3010 H   0  0  0  0  0  0  0  0  0  0  0  0
    5.3089   -0.5831   -0.1272 H   0  0  0  0  0  0  0  0  0  0  0  0
    6.2762   -0.6262    1.2421 H   0  0  0  0  0  0  0  0  0  0  0  0
  1  2  1  0
  2  3  2  0
  3  4  1  0
  4  5  2  0
  5  6  1  0
  4  7  1  0
  7  8  2  0
  8  9  1  0
  9 10  2  0
 10 11  1  0
 11 12  2  0
  3 13  1  0
 13 14  2  0
 14 15  1  0
 15 16  2  0
 16 17  1  0
 17 18  2  0
 16 19  1  0
 19 20  1  0
 19 21  2  0
 19 22  2  0
  6  2  1  0
 12  7  1  0
 18 13  1  0
  1 23  1  0
  1 24  1  0
  1 25  1  0
  8 26  1  0
  9 27  1  0
 10 28  1  0
 11 29  1  0
 12 30  1  0
 14 31  1  0
 15 32  1  0
 17 33  1  0
 18 34  1  0
 20 35  1  0
 20 36  1  0
M  END
$$$$
