
     RDKit          3D

 55 58  0  0  0  0  0  0  0  0999 V2000
   -4.3449   -3.9571    0.5541 C   0  0  0  0  0  0  0  0  0  0  0  0
   -4.7639   -2.4775    0.6432 C   0  0  0  0  0  0  0  0  0  0  0  0
   -5.4512   -2.2147    1.9967 C   0  0  0  0  0  0  0  0  0  0  0  0
   -5.7622   -2.1701   -0.4926 C   0  0  0  0  0  0  0  0  0  0  0  0
   -3.5316   -1.5981    0.5238 C   0  0  0  0  0  0  0  0  0  0  0  0
   -3.3274   -0.6957   -0.4618 N   0  0  0  0  0  0  0  0  0  0  0  0
   -2.1509   -0.1237   -0.2574 N   0  0  0  0  0  0  0  0  0  0  0  0
   -1.5903   -0.6641    0.8483 C   0  0  0  0  0  0  0  0  0  0  0  0
   -0.2831   -0.3674    1.3573 N   0  0  0  0  0  0  0  0  0  0  0  0
    0.8720   -0.2555    0.5159 C   0  0  0  0  0  0  0  0  0  0  0  0
    0.8298   -0.6689   -0.6754 O   0  0  0  0  0  0  0  0  0  0  0  0
    2.0868    0.2913    1.0469 N   0  0  0  0  0  0  0  0  0  0  0  0
    3.2032    0.6722    0.2226 C   0  0  0  0  0  0  0  0  0  0  0  0
    4.5349    0.3946    0.6199 C   0  0  0  0  0  0  0  0  0  0  0  0
    4.8238   -0.3425    1.7871 C   0  0  0  0  0  0  0  0  0  0  0  0
    6.1473   -0.6029    2.1517 C   0  0  0  0  0  0  0  0  0  0  0  0
    7.1997   -0.1425    1.3601 C   0  0  0  0  0  0  0  0  0  0  0  0
    6.9368    0.5762    0.1930 C   0  0  0  0  0  0  0  0  0  0  0  0
    5.6130    0.8458   -0.1886 C   0  0  0  0  0  0  0  0  0  0  0  0
    5.3536    1.5556   -1.3691 C   0  0  0  0  0  0  0  0  0  0  0  0
    4.0409    1.8220   -1.7537 C   0  0  0  0  0  0  0  0  0  0  0  0
    2.9755    1.3888   -0.9654 C   0  0  0  0  0  0  0  0  0  0  0  0
   -2.4453   -1.5980    1.3876 C   0  0  0  0  0  0  0  0  0  0  0  0
   -1.6571    0.9552   -1.0691 C   0  0  0  0  0  0  0  0  0  0  0  0
   -1.8298    0.9172   -2.4612 C   0  0  0  0  0  0  0  0  0  0  0  0
   -1.3528    1.9596   -3.2602 C   0  0  0  0  0  0  0  0  0  0  0  0
   -0.7111    3.0544   -2.6759 C   0  0  0  0  0  0  0  0  0  0  0  0
   -0.5523    3.1176   -1.2850 C   0  0  0  0  0  0  0  0  0  0  0  0
    0.1033    4.2384   -0.6861 N   0  0  0  0  0  0  0  0  0  0  0  0
   -1.0343    2.0721   -0.4844 C   0  0  0  0  0  0  0  0  0  0  0  0
   -5.2341   -4.6210    0.6183 H   0  0  0  0  0  0  0  0  0  0  0  0
   -3.6553   -4.2248    1.3835 H   0  0  0  0  0  0  0  0  0  0  0  0
   -3.8268   -4.1573   -0.4089 H   0  0  0  0  0  0  0  0  0  0  0  0
   -5.7368   -1.1441    2.0865 H   0  0  0  0  0  0  0  0  0  0  0  0
   -4.7749   -2.4676    2.8414 H   0  0  0  0  0  0  0  0  0  0  0  0
   -6.3702   -2.8321    2.0962 H   0  0  0  0  0  0  0  0  0  0  0  0
   -6.6659   -2.8116   -0.4062 H   0  0  0  0  0  0  0  0  0  0  0  0
   -6.0867   -1.1076   -0.4524 H   0  0  0  0  0  0  0  0  0  0  0  0
   -5.2978   -2.3590   -1.4849 H   0  0  0  0  0  0  0  0  0  0  0  0
   -0.1460   -0.3643    2.3927 H   0  0  0  0  0  0  0  0  0  0  0  0
    2.1431    0.4544    2.0769 H   0  0  0  0  0  0  0  0  0  0  0  0
    4.0377   -0.7345    2.4177 H   0  0  0  0  0  0  0  0  0  0  0  0
    6.3577   -1.1687    3.0502 H   0  0  0  0  0  0  0  0  0  0  0  0
    8.2223   -0.3489    1.6484 H   0  0  0  0  0  0  0  0  0  0  0  0
    7.7674    0.9185   -0.4129 H   0  0  0  0  0  0  0  0  0  0  0  0
    6.1668    1.9046   -1.9946 H   0  0  0  0  0  0  0  0  0  0  0  0
    3.8474    2.3760   -2.6633 H   0  0  0  0  0  0  0  0  0  0  0  0
    1.9678    1.6347   -1.2722 H   0  0  0  0  0  0  0  0  0  0  0  0
   -2.2855   -2.2149    2.2619 H   0  0  0  0  0  0  0  0  0  0  0  0
   -2.3193    0.0714   -2.9272 H   0  0  0  0  0  0  0  0  0  0  0  0
   -1.4787    1.9176   -4.3343 H   0  0  0  0  0  0  0  0  0  0  0  0
   -0.3415    3.8541   -3.3054 H   0  0  0  0  0  0  0  0  0  0  0  0
    0.2357    4.2901    0.3487 H   0  0  0  0  0  0  0  0  0  0  0  0
    0.4695    5.0203   -1.2737 H   0  0  0  0  0  0  0  0  0  0  0  0
   -0.9288    2.1323    0.5913 H   0  0  0  0  0  0  0  0  0  0  0  0
  1  2  1  0
  2  3  1  0
  2  4  1  0
  2  5  1  0
  5  6  2  0
  6  7  1  0
  7  8  1  0
  8  9  1  0
  9 10  1  0
 10 11  2  0
 10 12  1  0
 12 13  1  0
 13 14  1  0
 14 15  2  0
 15 16  1  0
 16 17  2  0
 17 18  1  0
 18 19  2  0
 19 20  1  0
 20 21  2  0
 21 22  1  0
  8 23  2  0
  7 24  1  0
 24 25  2  0
 25 26  1  0
 26 27  2  0
 27 28  1  0
 28 29  1  0
 28 30  2  0
 23  5  1  0
 30 24  1  0
 22 13  2  0
 19 14  1  0
  1 31  1  0
  1 32  1  0
  1 33  1  0
  3 34  1  0
  3 35  1  0
  3 36  1  0
  4 37  1  0
  4 38  1  0
  4 39  1  0
  9 40  1  0
 12 41  1  0
 15 42  1  0
 16 43  1  0
 17 44  1  0
 18 45  1  0
 20 46  1  0
 21 47  1  0
 22 48  1  0
 23 49  1  0
 25 50  1  0
 26 51  1  0
 27 52  1  0
 29 53  1  0
 29 54  1  0
 30 55  1  0
M  END
$$$$
