
     RDKit          3D

 48 49  0  0  0  0  0  0  0  0999 V2000
   -2.2782    0.7910    1.5114 C   0  0  0  0  0  0  0  0  0  0  0  0
   -3.4720    1.1004    0.6136 C   0  0  0  0  0  0  0  0  0  0  0  0
   -3.3560    0.3707   -0.6566 N   0  0  0  0  0  0  0  0  0  0  0  0
   -3.0101    1.0980   -1.8875 C   0  0  0  0  0  0  0  0  0  0  0  0
   -4.2064    1.1529   -2.8314 C   0  0  0  0  0  0  0  0  0  0  0  0
   -3.5838   -1.0552   -0.6714 C   0  0  0  0  0  0  0  0  0  0  0  0
   -4.4205   -1.5617    0.1248 O   0  0  0  0  0  0  0  0  0  0  0  0
   -2.7690   -1.9722   -1.5392 C   0  0  0  0  0  0  0  0  0  0  0  0
   -1.3703   -2.0522   -1.0050 C   0  0  0  0  0  0  0  0  0  0  0  0
   -1.0726   -2.8651    0.0965 C   0  0  0  0  0  0  0  0  0  0  0  0
    0.2181   -2.8550    0.6235 C   0  0  0  0  0  0  0  0  0  0  0  0
    1.1954   -2.0334    0.0605 C   0  0  0  0  0  0  0  0  0  0  0  0
    0.8666   -1.2213   -1.0395 C   0  0  0  0  0  0  0  0  0  0  0  0
    1.8198   -0.3334   -1.6446 N   0  0  0  0  0  0  0  0  0  0  0  0
    3.3599    0.0589   -0.9450 S   0  0  0  0  0  6  0  0  0  0  0  0
    4.1972   -1.1892   -0.9119 O   0  0  0  0  0  0  0  0  0  0  0  0
    4.0391    1.0841   -1.8083 O   0  0  0  0  0  0  0  0  0  0  0  0
    3.1470    0.7341    0.6826 C   0  0  0  0  0  0  0  0  0  0  0  0
    4.1908    0.7462    1.6470 C   0  0  0  0  0  0  0  0  0  0  0  0
    5.5680    0.2258    1.3091 C   0  0  0  0  0  0  0  0  0  0  0  0
    3.9097    1.2137    2.9544 C   0  0  0  0  0  0  0  0  0  0  0  0
    5.1061    1.1705    4.2479 Cl  0  0  0  0  0  0  0  0  0  0  0  0
    2.6442    1.7213    3.2631 C   0  0  0  0  0  0  0  0  0  0  0  0
    1.6468    1.7656    2.2936 C   0  0  0  0  0  0  0  0  0  0  0  0
    1.8957    1.2774    1.0135 C   0  0  0  0  0  0  0  0  0  0  0  0
   -0.4011   -1.2564   -1.5338 N   0  0  0  0  0  0  0  0  0  0  0  0
   -2.2562   -0.2893    1.7676 H   0  0  0  0  0  0  0  0  0  0  0  0
   -1.3346    1.0597    0.9918 H   0  0  0  0  0  0  0  0  0  0  0  0
   -2.3521    1.3793    2.4500 H   0  0  0  0  0  0  0  0  0  0  0  0
   -4.4153    0.8213    1.1305 H   0  0  0  0  0  0  0  0  0  0  0  0
   -3.5129    2.1975    0.4402 H   0  0  0  0  0  0  0  0  0  0  0  0
   -2.6962    2.1390   -1.6570 H   0  0  0  0  0  0  0  0  0  0  0  0
   -2.1481    0.6189   -2.3942 H   0  0  0  0  0  0  0  0  0  0  0  0
   -3.9372    1.7284   -3.7420 H   0  0  0  0  0  0  0  0  0  0  0  0
   -5.0619    1.6533   -2.3302 H   0  0  0  0  0  0  0  0  0  0  0  0
   -4.5102    0.1292   -3.1348 H   0  0  0  0  0  0  0  0  0  0  0  0
   -3.2230   -2.9874   -1.5503 H   0  0  0  0  0  0  0  0  0  0  0  0
   -2.7629   -1.6146   -2.5895 H   0  0  0  0  0  0  0  0  0  0  0  0
   -1.8350   -3.4879    0.5477 H   0  0  0  0  0  0  0  0  0  0  0  0
    0.4594   -3.4777    1.4752 H   0  0  0  0  0  0  0  0  0  0  0  0
    2.1868   -2.0364    0.4890 H   0  0  0  0  0  0  0  0  0  0  0  0
    1.5380    0.1852   -2.5062 H   0  0  0  0  0  0  0  0  0  0  0  0
    6.3510    0.6778    1.9502 H   0  0  0  0  0  0  0  0  0  0  0  0
    5.8476    0.4882    0.2685 H   0  0  0  0  0  0  0  0  0  0  0  0
    5.5911   -0.8765    1.4360 H   0  0  0  0  0  0  0  0  0  0  0  0
    2.4325    2.0864    4.2603 H   0  0  0  0  0  0  0  0  0  0  0  0
    0.6730    2.1702    2.5380 H   0  0  0  0  0  0  0  0  0  0  0  0
    1.1019    1.3198    0.2801 H   0  0  0  0  0  0  0  0  0  0  0  0
  1  2  1  0
  2  3  1  0
  3  4  1  0
  4  5  1  0
  3  6  1  0
  6  7  2  0
  6  8  1  0
  8  9  1  0
  9 10  2  0
 10 11  1  0
 11 12  2  0
 12 13  1  0
 13 14  1  0
 14 15  1  0
 15 16  2  0
 15 17  2  0
 15 18  1  0
 18 19  2  0
 19 20  1  0
 19 21  1  0
 21 22  1  0
 21 23  2  0
 23 24  1  0
 24 25  2  0
 13 26  2  0
 26  9  1  0
 25 18  1  0
  1 27  1  0
  1 28  1  0
  1 29  1  0
  2 30  1  0
  2 31  1  0
  4 32  1  0
  4 33  1  0
  5 34  1  0
  5 35  1  0
  5 36  1  0
  8 37  1  0
  8 38  1  0
 10 39  1  0
 11 40  1  0
 12 41  1  0
 14 42  1  0
 20 43  1  0
 20 44  1  0
 20 45  1  0
 23 46  1  0
 24 47  1  0
 25 48  1  0
M  END
$$$$
