
     RDKit          3D

 18 18  0  0  0  0  0  0  0  0999 V2000
    2.7503    1.1815   -1.1474 C   0  0  0  0  0  0  0  0  0  0  0  0
    2.0176    1.0960    0.0706 O   0  0  0  0  0  0  0  0  0  0  0  0
    0.8278    0.3701    0.2293 C   0  0  0  0  0  0  0  0  0  0  0  0
    0.2384   -0.3550   -0.8251 C   0  0  0  0  0  0  0  0  0  0  0  0
   -0.9492   -1.0628   -0.6150 C   0  0  0  0  0  0  0  0  0  0  0  0
   -1.5598   -1.0556    0.6452 C   0  0  0  0  0  0  0  0  0  0  0  0
   -0.9777   -0.3364    1.6942 C   0  0  0  0  0  0  0  0  0  0  0  0
    0.2096    0.3718    1.4859 C   0  0  0  0  0  0  0  0  0  0  0  0
   -3.0707   -1.9515    0.9204 S   0  0  0  0  0  4  0  0  0  0  0  0
   -4.1089   -1.3961   -0.3084 O   0  0  0  0  0  1  0  0  0  0  0  0
   -2.7338   -3.3775    0.5062 O   0  0  0  0  0  0  0  0  0  0  0  0
    3.6452    1.8173   -0.9882 H   0  0  0  0  0  0  0  0  0  0  0  0
    2.1226    1.6426   -1.9389 H   0  0  0  0  0  0  0  0  0  0  0  0
    3.0839    0.1707   -1.4641 H   0  0  0  0  0  0  0  0  0  0  0  0
    0.6887   -0.3778   -1.8080 H   0  0  0  0  0  0  0  0  0  0  0  0
   -1.3928   -1.6162   -1.4331 H   0  0  0  0  0  0  0  0  0  0  0  0
   -1.4431   -0.3246    2.6717 H   0  0  0  0  0  0  0  0  0  0  0  0
    0.6520    0.9251    2.3047 H   0  0  0  0  0  0  0  0  0  0  0  0
  1  2  1  0
  2  3  1  0
  3  4  2  0
  4  5  1  0
  5  6  2  0
  6  7  1  0
  7  8  2  0
  6  9  1  0
  9 10  1  0
  9 11  2  0
  8  3  1  0
  1 12  1  0
  1 13  1  0
  1 14  1  0
  4 15  1  0
  5 16  1  0
  7 17  1  0
  8 18  1  0
M  CHG  1  10  -1
M  END
$$$$
