
     RDKit          3D

 31 32  0  0  0  0  0  0  0  0999 V2000
   -5.3581   -0.9935    0.2545 C   0  0  0  0  0  0  0  0  0  0  0  0
   -4.3547   -1.6239    1.0440 O   0  0  0  0  0  0  0  0  0  0  0  0
   -2.9890   -1.3069    0.9922 C   0  0  0  0  0  0  0  0  0  0  0  0
   -2.4762   -0.3138    0.1349 C   0  0  0  0  0  0  0  0  0  0  0  0
   -1.1009   -0.0323    0.1188 C   0  0  0  0  0  0  0  0  0  0  0  0
   -0.2270   -0.7497    0.9677 C   0  0  0  0  0  0  0  0  0  0  0  0
   -0.7440   -1.7368    1.8186 C   0  0  0  0  0  0  0  0  0  0  0  0
   -2.1139   -2.0102    1.8278 C   0  0  0  0  0  0  0  0  0  0  0  0
    1.1477   -0.4684    0.9518 C   0  0  0  0  0  0  0  0  0  0  0  0
    1.6657    0.5212    0.0975 C   0  0  0  0  0  0  0  0  0  0  0  0
    0.7853    1.2293   -0.7418 C   0  0  0  0  0  0  0  0  0  0  0  0
   -0.5842    0.9549   -0.7316 C   0  0  0  0  0  0  0  0  0  0  0  0
    3.1527    0.8164    0.0937 C   0  0  2  0  0  0  0  0  0  0  0  0
    3.4382    2.2474    0.5675 C   0  0  0  0  0  0  0  0  0  0  0  0
    3.7445    0.5456   -1.2636 C   0  0  0  0  0  0  0  0  0  0  0  0
    4.2970   -0.7027   -1.5332 O   0  0  0  0  0  0  0  0  0  0  0  0
    3.7056    1.4207   -2.1710 O   0  0  0  0  0  0  0  0  0  0  0  0
   -5.3933    0.0936    0.4785 H   0  0  0  0  0  0  0  0  0  0  0  0
   -5.1528   -1.1557   -0.8248 H   0  0  0  0  0  0  0  0  0  0  0  0
   -6.3443   -1.4385    0.4989 H   0  0  0  0  0  0  0  0  0  0  0  0
   -3.1388    0.2398   -0.5180 H   0  0  0  0  0  0  0  0  0  0  0  0
   -0.0898   -2.2969    2.4763 H   0  0  0  0  0  0  0  0  0  0  0  0
   -2.4998   -2.7751    2.4898 H   0  0  0  0  0  0  0  0  0  0  0  0
    1.8150   -1.0198    1.6045 H   0  0  0  0  0  0  0  0  0  0  0  0
    1.1586    1.9963   -1.4079 H   0  0  0  0  0  0  0  0  0  0  0  0
   -1.2389    1.5150   -1.3887 H   0  0  0  0  0  0  0  0  0  0  0  0
    3.6667    0.1396    0.8121 H   0  0  0  0  0  0  0  0  0  0  0  0
    4.5348    2.4225    0.6066 H   0  0  0  0  0  0  0  0  0  0  0  0
    2.9834    2.9979   -0.1134 H   0  0  0  0  0  0  0  0  0  0  0  0
    3.0256    2.3974    1.5881 H   0  0  0  0  0  0  0  0  0  0  0  0
    4.6849   -0.9133   -2.4450 H   0  0  0  0  0  0  0  0  0  0  0  0
  1  2  1  0
  2  3  1  0
  3  4  2  0
  4  5  1  0
  5  6  2  0
  6  7  1  0
  7  8  2  0
  6  9  1  0
  9 10  2  0
 10 11  1  0
 11 12  2  0
 10 13  1  0
 13 14  1  0
 13 15  1  0
 15 16  1  0
 15 17  2  0
  8  3  1  0
 12  5  1  0
  1 18  1  0
  1 19  1  0
  1 20  1  0
  4 21  1  0
  7 22  1  0
  8 23  1  0
  9 24  1  0
 11 25  1  0
 12 26  1  0
 13 27  1  1
 14 28  1  0
 14 29  1  0
 14 30  1  0
 16 31  1  0
M  END
$$$$
