
     RDKit          3D

 33 34  0  0  0  0  0  0  0  0999 V2000
    4.0884   -1.2702    2.3308 O   0  0  0  0  0  0  0  0  0  0  0  0
    2.8133   -1.0902    1.8006 C   0  0  0  0  0  0  0  0  0  0  0  0
    1.8218   -1.5835    2.4024 O   0  0  0  0  0  0  0  0  0  0  0  0
    2.6406   -0.3671    0.5176 C   0  0  0  0  0  0  0  0  0  0  0  0
    3.7164   -0.3505   -0.3890 C   0  0  0  0  0  0  0  0  0  0  0  0
    3.5854    0.2523   -1.6401 C   0  0  0  0  0  0  0  0  0  0  0  0
    2.3814    0.8492   -2.0044 C   0  0  0  0  0  0  0  0  0  0  0  0
    1.3079    0.8607   -1.1137 C   0  0  0  0  0  0  0  0  0  0  0  0
    1.4196    0.2638    0.1568 C   0  0  0  0  0  0  0  0  0  0  0  0
    0.3398    0.3721    1.1079 N   0  0  0  0  0  0  0  0  0  0  0  0
   -1.0826    0.1421    0.8155 C   0  0  0  0  0  0  0  0  0  0  0  0
   -1.2926   -1.0047   -0.1952 C   0  0  0  0  0  0  0  0  0  0  0  0
   -2.7896   -1.2955   -0.4105 C   0  0  0  0  0  0  0  0  0  0  0  0
   -3.6746   -0.0294   -0.4022 C   0  0  0  0  0  0  0  0  0  0  0  0
   -2.8720    1.2487   -0.6719 C   0  0  0  0  0  0  0  0  0  0  0  0
   -1.7890    1.4579    0.4003 C   0  0  0  0  0  0  0  0  0  0  0  0
    4.2248   -1.7755    3.1981 H   0  0  0  0  0  0  0  0  0  0  0  0
    4.6565   -0.8271   -0.1398 H   0  0  0  0  0  0  0  0  0  0  0  0
    4.4180    0.2492   -2.3318 H   0  0  0  0  0  0  0  0  0  0  0  0
    2.2819    1.3139   -2.9770 H   0  0  0  0  0  0  0  0  0  0  0  0
    0.3970    1.3502   -1.4216 H   0  0  0  0  0  0  0  0  0  0  0  0
    0.5868    0.5494    2.1077 H   0  0  0  0  0  0  0  0  0  0  0  0
   -1.5625   -0.1943    1.7633 H   0  0  0  0  0  0  0  0  0  0  0  0
   -0.7877   -1.9253    0.1705 H   0  0  0  0  0  0  0  0  0  0  0  0
   -0.8440   -0.7427   -1.1757 H   0  0  0  0  0  0  0  0  0  0  0  0
   -3.1454   -1.9863    0.3850 H   0  0  0  0  0  0  0  0  0  0  0  0
   -2.9105   -1.8244   -1.3811 H   0  0  0  0  0  0  0  0  0  0  0  0
   -4.4743   -0.1303   -1.1674 H   0  0  0  0  0  0  0  0  0  0  0  0
   -4.1727    0.0654    0.5880 H   0  0  0  0  0  0  0  0  0  0  0  0
   -3.5573    2.1236   -0.6800 H   0  0  0  0  0  0  0  0  0  0  0  0
   -2.3979    1.1823   -1.6758 H   0  0  0  0  0  0  0  0  0  0  0  0
   -1.0628    2.2128    0.0353 H   0  0  0  0  0  0  0  0  0  0  0  0
   -2.2640    1.9037    1.3021 H   0  0  0  0  0  0  0  0  0  0  0  0
  1  2  1  0
  2  3  2  0
  2  4  1  0
  4  5  2  0
  5  6  1  0
  6  7  2  0
  7  8  1  0
  8  9  2  0
  9 10  1  0
 10 11  1  0
 11 12  1  0
 12 13  1  0
 13 14  1  0
 14 15  1  0
 15 16  1  0
  9  4  1  0
 16 11  1  0
  1 17  1  0
  5 18  1  0
  6 19  1  0
  7 20  1  0
  8 21  1  0
 10 22  1  0
 11 23  1  0
 12 24  1  0
 12 25  1  0
 13 26  1  0
 13 27  1  0
 14 28  1  0
 14 29  1  0
 15 30  1  0
 15 31  1  0
 16 32  1  0
 16 33  1  0
M  END
$$$$
