
     RDKit          3D

 77 81  0  0  0  0  0  0  0  0999 V2000
   -5.8868    2.5083    2.0211 C   0  0  0  0  0  0  0  0  0  0  0  0
   -4.4616    2.1306    2.4186 C   0  0  0  0  0  0  0  0  0  0  0  0
   -4.3057    2.1554    3.9416 C   0  0  0  0  0  0  0  0  0  0  0  0
   -4.1748    0.8258    1.9167 O   0  0  0  0  0  0  0  0  0  0  0  0
   -2.8812    0.3010    1.8101 C   0  0  0  0  0  0  0  0  0  0  0  0
   -1.8835    1.0293    2.0672 O   0  0  0  0  0  0  0  0  0  0  0  0
   -2.6666   -1.0909    1.3318 C   0  0  0  0  0  0  0  0  0  0  0  0
   -3.5563   -2.0859    1.5596 C   0  0  0  0  0  0  0  0  0  0  0  0
   -4.8144   -1.8822    2.3639 C   0  0  0  0  0  0  0  0  0  0  0  0
   -3.3001   -3.3978    1.0382 N   0  0  0  0  0  0  0  0  0  0  0  0
   -2.0294   -3.7693    0.4916 C   0  0  0  0  0  0  0  0  0  0  0  0
   -1.8184   -5.1403    0.1263 N   0  0  0  0  0  0  0  0  0  0  0  0
   -1.0831   -2.8253    0.3045 C   0  0  0  0  0  0  0  0  0  0  0  0
   -1.4205   -1.3548    0.4990 C   0  0  0  0  0  0  0  0  0  0  0  0
   -1.5522   -0.6575   -0.8422 C   0  0  0  0  0  0  0  0  0  0  0  0
   -0.7850    0.4859   -1.1181 C   0  0  0  0  0  0  0  0  0  0  0  0
   -0.8942    1.1297   -2.3509 C   0  0  0  0  0  0  0  0  0  0  0  0
   -1.7801    0.6505   -3.3175 C   0  0  0  0  0  0  0  0  0  0  0  0
   -2.5756   -0.4798   -3.0574 C   0  0  0  0  0  0  0  0  0  0  0  0
   -2.4577   -1.1246   -1.8132 C   0  0  0  0  0  0  0  0  0  0  0  0
   -3.4980   -0.9715   -4.0472 N   0  0  0  0  0  4  0  0  0  0  0  0
   -4.2745   -2.0785   -3.7913 O   0  0  0  0  0  1  0  0  0  0  0  0
   -3.6082   -0.4028   -5.1533 O   0  0  0  0  0  0  0  0  0  0  0  0
    0.2930   -3.1551   -0.1350 C   0  0  0  0  0  0  0  0  0  0  0  0
    0.8749   -4.1887    0.2955 O   0  0  0  0  0  0  0  0  0  0  0  0
    0.9648   -2.2717   -0.9835 O   0  0  0  0  0  0  0  0  0  0  0  0
    2.3194   -2.4540   -1.3829 C   0  0  0  0  0  0  0  0  0  0  0  0
    3.3004   -1.9880   -0.3234 C   0  0  0  0  0  0  0  0  0  0  0  0
    3.7385   -0.8307   -1.1231 N   0  0  0  0  0  0  0  0  0  0  0  0
    2.8175   -1.2696   -2.1863 C   0  0  0  0  0  0  0  0  0  0  0  0
    3.3123    0.4547   -0.5146 C   0  0  0  0  0  0  0  0  0  0  0  0
    3.4849    1.6064   -1.4869 C   0  0  0  0  0  0  0  0  0  0  0  0
    4.5931    1.6711   -2.3535 C   0  0  0  0  0  0  0  0  0  0  0  0
    4.7459    2.7532   -3.2254 C   0  0  0  0  0  0  0  0  0  0  0  0
    3.8043    3.7850   -3.2339 C   0  0  0  0  0  0  0  0  0  0  0  0
    2.7112    3.7402   -2.3655 C   0  0  0  0  0  0  0  0  0  0  0  0
    2.5547    2.6614   -1.4907 C   0  0  0  0  0  0  0  0  0  0  0  0
    4.1130    0.7498    0.7383 C   0  0  0  0  0  0  0  0  0  0  0  0
    3.4750    1.3020    1.8637 C   0  0  0  0  0  0  0  0  0  0  0  0
    4.2084    1.6049    3.0147 C   0  0  0  0  0  0  0  0  0  0  0  0
    5.5848    1.3692    3.0509 C   0  0  0  0  0  0  0  0  0  0  0  0
    6.2315    0.8337    1.9345 C   0  0  0  0  0  0  0  0  0  0  0  0
    5.5029    0.5291    0.7809 C   0  0  0  0  0  0  0  0  0  0  0  0
   -5.9831    2.4926    0.9147 H   0  0  0  0  0  0  0  0  0  0  0  0
   -6.1302    3.5308    2.3809 H   0  0  0  0  0  0  0  0  0  0  0  0
   -6.6142    1.7868    2.4516 H   0  0  0  0  0  0  0  0  0  0  0  0
   -3.7669    2.8712    1.9634 H   0  0  0  0  0  0  0  0  0  0  0  0
   -4.5536    3.1632    4.3376 H   0  0  0  0  0  0  0  0  0  0  0  0
   -3.2583    1.9203    4.2234 H   0  0  0  0  0  0  0  0  0  0  0  0
   -4.9768    1.4045    4.4109 H   0  0  0  0  0  0  0  0  0  0  0  0
   -5.2580   -2.8580    2.6519 H   0  0  0  0  0  0  0  0  0  0  0  0
   -4.5946   -1.3315    3.3031 H   0  0  0  0  0  0  0  0  0  0  0  0
   -5.5636   -1.3286    1.7603 H   0  0  0  0  0  0  0  0  0  0  0  0
   -4.0369   -4.1333    1.1262 H   0  0  0  0  0  0  0  0  0  0  0  0
   -2.5230   -5.8626    0.3942 H   0  0  0  0  0  0  0  0  0  0  0  0
   -1.0565   -5.4360   -0.5220 H   0  0  0  0  0  0  0  0  0  0  0  0
   -0.5612   -0.9203    1.0580 H   0  0  0  0  0  0  0  0  0  0  0  0
   -0.1037    0.8815   -0.3770 H   0  0  0  0  0  0  0  0  0  0  0  0
   -0.2929    2.0056   -2.5573 H   0  0  0  0  0  0  0  0  0  0  0  0
   -1.8474    1.1676   -4.2660 H   0  0  0  0  0  0  0  0  0  0  0  0
   -3.0670   -1.9923   -1.5966 H   0  0  0  0  0  0  0  0  0  0  0  0
    2.5399   -3.4448   -1.8376 H   0  0  0  0  0  0  0  0  0  0  0  0
    4.1366   -2.7082   -0.1904 H   0  0  0  0  0  0  0  0  0  0  0  0
    2.8121   -1.7276    0.6447 H   0  0  0  0  0  0  0  0  0  0  0  0
    2.0125   -0.5391   -2.4363 H   0  0  0  0  0  0  0  0  0  0  0  0
    3.3866   -1.5895   -3.0861 H   0  0  0  0  0  0  0  0  0  0  0  0
    2.2334    0.3896   -0.2373 H   0  0  0  0  0  0  0  0  0  0  0  0
    5.3364    0.8846   -2.3590 H   0  0  0  0  0  0  0  0  0  0  0  0
    5.5964    2.7927   -3.8936 H   0  0  0  0  0  0  0  0  0  0  0  0
    3.9247    4.6220   -3.9095 H   0  0  0  0  0  0  0  0  0  0  0  0
    1.9865    4.5441   -2.3669 H   0  0  0  0  0  0  0  0  0  0  0  0
    1.7085    2.6499   -0.8155 H   0  0  0  0  0  0  0  0  0  0  0  0
    2.4101    1.4991    1.8502 H   0  0  0  0  0  0  0  0  0  0  0  0
    3.7095    2.0255    3.8782 H   0  0  0  0  0  0  0  0  0  0  0  0
    6.1509    1.6053    3.9426 H   0  0  0  0  0  0  0  0  0  0  0  0
    7.2989    0.6566    1.9619 H   0  0  0  0  0  0  0  0  0  0  0  0
    6.0225    0.1197   -0.0756 H   0  0  0  0  0  0  0  0  0  0  0  0
  1  2  1  0
  2  3  1  0
  2  4  1  0
  4  5  1  0
  5  6  2  0
  5  7  1  0
  7  8  2  0
  8  9  1  0
  8 10  1  0
 10 11  1  0
 11 12  1  0
 11 13  2  0
 13 14  1  0
 14 15  1  0
 15 16  2  0
 16 17  1  0
 17 18  2  0
 18 19  1  0
 19 20  2  0
 19 21  1  0
 21 22  1  0
 21 23  2  0
 13 24  1  0
 24 25  2  0
 24 26  1  0
 26 27  1  0
 27 28  1  0
 28 29  1  0
 29 30  1  0
 29 31  1  0
 31 32  1  0
 32 33  2  0
 33 34  1  0
 34 35  2  0
 35 36  1  0
 36 37  2  0
 31 38  1  0
 38 39  2  0
 39 40  1  0
 40 41  2  0
 41 42  1  0
 42 43  2  0
 14  7  1  0
 20 15  1  0
 30 27  1  0
 37 32  1  0
 43 38  1  0
  1 44  1  0
  1 45  1  0
  1 46  1  0
  2 47  1  0
  3 48  1  0
  3 49  1  0
  3 50  1  0
  9 51  1  0
  9 52  1  0
  9 53  1  0
 10 54  1  0
 12 55  1  0
 12 56  1  0
 14 57  1  0
 16 58  1  0
 17 59  1  0
 18 60  1  0
 20 61  1  0
 27 62  1  0
 28 63  1  0
 28 64  1  0
 30 65  1  0
 30 66  1  0
 31 67  1  0
 33 68  1  0
 34 69  1  0
 35 70  1  0
 36 71  1  0
 37 72  1  0
 39 73  1  0
 40 74  1  0
 41 75  1  0
 42 76  1  0
 43 77  1  0
M  CHG  2  21   1  22  -1
M  END
$$$$
