
     RDKit          3D

 46 49  0  0  0  0  0  0  0  0999 V2000
    0.3970    5.2028    0.0049 C   0  0  0  0  0  0  0  0  0  0  0  0
   -0.1012    4.2494    1.0845 C   0  0  0  0  0  0  0  0  0  0  0  0
   -0.1032    2.9071    0.6051 O   0  0  0  0  0  0  0  0  0  0  0  0
   -1.0646    2.4044   -0.2811 C   0  0  0  0  0  0  0  0  0  0  0  0
   -2.0413    3.1207   -0.6359 O   0  0  0  0  0  0  0  0  0  0  0  0
   -0.9604    0.9880   -0.7900 C   0  0  0  0  0  0  0  0  0  0  0  0
   -1.7334   -0.0861    0.0019 C   0  0  0  0  0  0  0  0  0  0  0  0
   -1.8264   -1.4095   -0.5118 C   0  0  0  0  0  0  0  0  0  0  0  0
   -1.3024   -1.7617   -1.7612 O   0  0  0  0  0  0  0  0  0  0  0  0
   -2.4746   -2.4042    0.2382 C   0  0  0  0  0  0  0  0  0  0  0  0
   -2.5601   -3.7370   -0.2086 C   0  0  0  0  0  0  0  0  0  0  0  0
   -3.2200   -4.6967    0.5651 C   0  0  0  0  0  0  0  0  0  0  0  0
   -3.8008   -4.3378    1.7838 C   0  0  0  0  0  0  0  0  0  0  0  0
   -3.7250   -3.0172    2.2331 C   0  0  0  0  0  0  0  0  0  0  0  0
   -3.0656   -2.0501    1.4656 C   0  0  0  0  0  0  0  0  0  0  0  0
   -3.0079   -0.8009    1.8989 O   0  0  0  0  0  0  0  0  0  0  0  0
   -2.3921    0.1722    1.2390 C   0  0  0  0  0  0  0  0  0  0  0  0
   -2.4029    1.3221    1.7500 O   0  0  0  0  0  0  0  0  0  0  0  0
    0.5131    0.6290   -1.0229 C   0  0  0  0  0  0  0  0  0  0  0  0
    1.3750    0.1689    0.0090 C   0  0  0  0  0  0  0  0  0  0  0  0
    0.9768    0.1114    1.3472 O   0  0  0  0  0  0  0  0  0  0  0  0
    2.6852   -0.2230   -0.3128 C   0  0  0  0  0  0  0  0  0  0  0  0
    3.5682   -0.7359    0.6565 C   0  0  0  0  0  0  0  0  0  0  0  0
    4.8680   -1.1058    0.2976 C   0  0  0  0  0  0  0  0  0  0  0  0
    5.2994   -0.9637   -1.0235 C   0  0  0  0  0  0  0  0  0  0  0  0
    4.4333   -0.4493   -1.9916 C   0  0  0  0  0  0  0  0  0  0  0  0
    3.1300   -0.0773   -1.6426 C   0  0  0  0  0  0  0  0  0  0  0  0
    2.3230    0.4218   -2.5671 O   0  0  0  0  0  0  0  0  0  0  0  0
    1.0701    0.7809   -2.3167 C   0  0  0  0  0  0  0  0  0  0  0  0
    0.3838    1.2576   -3.2600 O   0  0  0  0  0  0  0  0  0  0  0  0
   -0.2915    5.1956   -0.8657 H   0  0  0  0  0  0  0  0  0  0  0  0
    0.4469    6.2346    0.4119 H   0  0  0  0  0  0  0  0  0  0  0  0
    1.4110    4.8979   -0.3304 H   0  0  0  0  0  0  0  0  0  0  0  0
   -1.1194    4.5428    1.4208 H   0  0  0  0  0  0  0  0  0  0  0  0
    0.5816    4.3112    1.9578 H   0  0  0  0  0  0  0  0  0  0  0  0
   -1.4786    1.0109   -1.7731 H   0  0  0  0  0  0  0  0  0  0  0  0
   -0.9365   -1.1016   -2.4309 H   0  0  0  0  0  0  0  0  0  0  0  0
   -2.1186   -4.0420   -1.1491 H   0  0  0  0  0  0  0  0  0  0  0  0
   -3.2815   -5.7204    0.2190 H   0  0  0  0  0  0  0  0  0  0  0  0
   -4.3113   -5.0833    2.3797 H   0  0  0  0  0  0  0  0  0  0  0  0
   -4.1797   -2.7449    3.1773 H   0  0  0  0  0  0  0  0  0  0  0  0
    0.1524    0.5657    1.7053 H   0  0  0  0  0  0  0  0  0  0  0  0
    3.2593   -0.8563    1.6874 H   0  0  0  0  0  0  0  0  0  0  0  0
    5.5424   -1.5026    1.0454 H   0  0  0  0  0  0  0  0  0  0  0  0
    6.3066   -1.2503   -1.2969 H   0  0  0  0  0  0  0  0  0  0  0  0
    4.7757   -0.3375   -3.0127 H   0  0  0  0  0  0  0  0  0  0  0  0
  1  2  1  0
  2  3  1  0
  3  4  1  0
  4  5  2  0
  4  6  1  0
  6  7  1  0
  7  8  2  0
  8  9  1  0
  8 10  1  0
 10 11  2  0
 11 12  1  0
 12 13  2  0
 13 14  1  0
 14 15  2  0
 15 16  1  0
 16 17  1  0
 17 18  2  0
  6 19  1  0
 19 20  2  0
 20 21  1  0
 20 22  1  0
 22 23  2  0
 23 24  1  0
 24 25  2  0
 25 26  1  0
 26 27  2  0
 27 28  1  0
 28 29  1  0
 29 30  2  0
 17  7  1  0
 29 19  1  0
 15 10  1  0
 27 22  1  0
  1 31  1  0
  1 32  1  0
  1 33  1  0
  2 34  1  0
  2 35  1  0
  6 36  1  0
  9 37  1  0
 11 38  1  0
 12 39  1  0
 13 40  1  0
 14 41  1  0
 21 42  1  0
 23 43  1  0
 24 44  1  0
 25 45  1  0
 26 46  1  0
M  END
$$$$
