
     RDKit          3D

 38 39  0  0  0  0  0  0  0  0999 V2000
   -2.5776   -1.7261   -1.1844 C   0  0  1  0  0  0  0  0  0  0  0  0
   -2.1682   -2.3385   -2.3801 O   0  0  0  0  0  0  0  0  0  0  0  0
   -2.9117   -2.7965   -0.1402 C   0  0  0  0  0  0  0  0  0  0  0  0
   -1.9341   -2.7109    0.9493 N   0  0  0  0  0  0  0  0  0  0  0  0
   -0.8248   -1.9114    0.4280 C   0  0  2  0  0  0  0  0  0  0  0  0
   -0.0108   -1.2510    1.5634 C   0  0  0  0  0  0  0  0  0  0  0  0
    1.1778   -0.4935    1.0269 C   0  0  0  0  0  0  0  0  0  0  0  0
    2.3179   -1.1863    0.5919 C   0  0  0  0  0  0  0  0  0  0  0  0
    3.4082   -0.4896    0.0635 C   0  0  0  0  0  0  0  0  0  0  0  0
    3.3773    0.9056   -0.0432 C   0  0  0  0  0  0  0  0  0  0  0  0
    4.4960    1.5580   -0.5825 O   0  0  0  0  0  0  0  0  0  0  0  0
    4.6000    2.9680   -0.7512 C   0  0  0  0  0  0  0  0  0  0  0  0
    2.2330    1.6020    0.3902 C   0  0  0  0  0  0  0  0  0  0  0  0
    1.1428    0.9058    0.9199 C   0  0  0  0  0  0  0  0  0  0  0  0
   -1.4280   -0.9314   -0.5756 C   0  0  2  0  0  0  0  0  0  0  0  0
   -1.9319    0.2263    0.0945 O   0  0  0  0  0  0  0  0  0  0  0  0
   -2.3106    1.3944   -0.5746 C   0  0  0  0  0  0  0  0  0  0  0  0
   -2.7827    2.5684    0.2125 C   0  0  0  0  0  0  0  0  0  0  0  0
   -2.2095    1.4819   -1.8285 O   0  0  0  0  0  0  0  0  0  0  0  0
   -3.4700   -1.0837   -1.3713 H   0  0  0  0  0  0  0  0  0  0  0  0
   -2.1723   -1.6305   -3.0763 H   0  0  0  0  0  0  0  0  0  0  0  0
   -3.9436   -2.6437    0.2502 H   0  0  0  0  0  0  0  0  0  0  0  0
   -2.8686   -3.8147   -0.5846 H   0  0  0  0  0  0  0  0  0  0  0  0
   -2.3871   -2.1896    1.7379 H   0  0  0  0  0  0  0  0  0  0  0  0
   -0.1449   -2.6005   -0.1242 H   0  0  0  0  0  0  0  0  0  0  0  0
    0.3508   -2.0444    2.2535 H   0  0  0  0  0  0  0  0  0  0  0  0
   -0.6587   -0.5789    2.1679 H   0  0  0  0  0  0  0  0  0  0  0  0
    2.3604   -2.2664    0.6591 H   0  0  0  0  0  0  0  0  0  0  0  0
    4.2815   -1.0370   -0.2680 H   0  0  0  0  0  0  0  0  0  0  0  0
    3.8028    3.3306   -1.4341 H   0  0  0  0  0  0  0  0  0  0  0  0
    5.5865    3.2079   -1.1979 H   0  0  0  0  0  0  0  0  0  0  0  0
    4.5217    3.4771    0.2326 H   0  0  0  0  0  0  0  0  0  0  0  0
    2.1751    2.6796    0.3207 H   0  0  0  0  0  0  0  0  0  0  0  0
    0.2713    1.4599    1.2454 H   0  0  0  0  0  0  0  0  0  0  0  0
   -0.6657   -0.6347   -1.3317 H   0  0  0  0  0  0  0  0  0  0  0  0
   -3.2121    2.2283    1.1780 H   0  0  0  0  0  0  0  0  0  0  0  0
   -3.5633    3.1192   -0.3535 H   0  0  0  0  0  0  0  0  0  0  0  0
   -1.9269    3.2459    0.4132 H   0  0  0  0  0  0  0  0  0  0  0  0
  1  2  1  0
  1  3  1  0
  3  4  1  0
  4  5  1  0
  5  6  1  0
  6  7  1  0
  7  8  2  0
  8  9  1  0
  9 10  2  0
 10 11  1  0
 11 12  1  0
 10 13  1  0
 13 14  2  0
  5 15  1  0
 15 16  1  0
 16 17  1  0
 17 18  1  0
 17 19  2  0
 15  1  1  0
 14  7  1  0
  1 20  1  6
  2 21  1  0
  3 22  1  0
  3 23  1  0
  4 24  1  0
  5 25  1  6
  6 26  1  0
  6 27  1  0
  8 28  1  0
  9 29  1  0
 12 30  1  0
 12 31  1  0
 12 32  1  0
 13 33  1  0
 14 34  1  0
 15 35  1  6
 18 36  1  0
 18 37  1  0
 18 38  1  0
M  END
$$$$
