
     RDKit          3D

 52 55  0  0  0  0  0  0  0  0999 V2000
    3.4654    0.3020   -2.6881 C   0  0  1  0  0  0  0  0  0  0  0  0
    3.1530   -0.0862   -3.9814 F   0  0  0  0  0  0  0  0  0  0  0  0
    2.1974    0.3872   -1.8600 C   0  0  0  0  0  0  0  0  0  0  0  0
    1.9548   -0.9485   -1.2835 N   0  0  0  0  0  0  0  0  0  0  0  0
    1.5355   -0.8806    0.1305 C   0  0  0  0  0  0  0  0  0  0  0  0
    0.1764   -0.2565    0.2484 C   0  0  0  0  0  0  0  0  0  0  0  0
    0.0668    0.9000    0.7384 O   0  0  0  0  0  0  0  0  0  0  0  0
   -0.9744   -0.9500   -0.2586 N   0  0  0  0  0  0  0  0  0  0  0  0
   -2.3289   -0.5067   -0.0660 C   0  0  0  0  0  0  0  0  0  0  0  0
   -2.7368    0.0830    1.1435 C   0  0  0  0  0  0  0  0  0  0  0  0
   -4.0626    0.4868    1.3222 C   0  0  0  0  0  0  0  0  0  0  0  0
   -5.0061    0.3009    0.2996 C   0  0  0  0  0  0  0  0  0  0  0  0
   -4.6057   -0.3121   -0.8981 C   0  0  0  0  0  0  0  0  0  0  0  0
   -3.2797   -0.7176   -1.0782 C   0  0  0  0  0  0  0  0  0  0  0  0
   -2.9171   -1.3003   -2.2488 F   0  0  0  0  0  0  0  0  0  0  0  0
   -6.3765    0.7092    0.4864 N   0  0  0  0  0  0  0  0  0  0  0  0
   -7.3694   -0.2215    0.3370 C   0  0  0  0  0  0  0  0  0  0  0  0
   -8.7085    0.1296    0.5181 C   0  0  0  0  0  0  0  0  0  0  0  0
   -9.0329    1.4418    0.8524 C   0  0  0  0  0  0  0  0  0  0  0  0
   -8.0207    2.3880    0.9980 C   0  0  0  0  0  0  0  0  0  0  0  0
   -6.6875    2.0086    0.8073 C   0  0  0  0  0  0  0  0  0  0  0  0
   -5.7817    2.8797    0.9200 O   0  0  0  0  0  0  0  0  0  0  0  0
    3.2001   -1.7216   -1.4449 C   0  0  0  0  0  0  0  0  0  0  0  0
    4.2699   -0.7885   -2.0063 C   0  0  2  0  0  0  0  0  0  0  0  0
    5.0911   -0.2397   -0.9185 N   0  0  0  0  0  0  0  0  0  0  0  0
    6.0991   -1.0260   -0.2626 C   0  0  0  0  0  0  0  0  0  0  0  0
    6.3803   -2.1748   -0.7002 O   0  0  0  0  0  0  0  0  0  0  0  0
    6.8206   -0.5165    0.9187 C   0  0  0  0  0  0  0  0  0  0  0  0
    6.5592    0.6597    1.6215 C   0  0  0  0  0  0  0  0  0  0  0  0
    7.4149    0.8559    2.7124 C   0  0  0  0  0  0  0  0  0  0  0  0
    8.3424   -0.1621    2.8692 C   0  0  0  0  0  0  0  0  0  0  0  0
    9.5604   -0.2528    4.1237 Cl  0  0  0  0  0  0  0  0  0  0  0  0
    8.1085   -1.3078    1.6648 S   0  0  0  0  0  0  0  0  0  0  0  0
    4.0039    1.2743   -2.7242 H   0  0  0  0  0  0  0  0  0  0  0  0
    1.3339    0.6862   -2.4921 H   0  0  0  0  0  0  0  0  0  0  0  0
    2.3406    1.1645   -1.0741 H   0  0  0  0  0  0  0  0  0  0  0  0
    1.4640   -1.9083    0.5500 H   0  0  0  0  0  0  0  0  0  0  0  0
    2.2797   -0.3195    0.7414 H   0  0  0  0  0  0  0  0  0  0  0  0
   -0.8082   -1.7781   -0.8743 H   0  0  0  0  0  0  0  0  0  0  0  0
   -2.0395    0.2066    1.9614 H   0  0  0  0  0  0  0  0  0  0  0  0
   -4.3607    0.9289    2.2645 H   0  0  0  0  0  0  0  0  0  0  0  0
   -5.3227   -0.4675   -1.6945 H   0  0  0  0  0  0  0  0  0  0  0  0
   -7.1291   -1.2488    0.0878 H   0  0  0  0  0  0  0  0  0  0  0  0
   -9.4879   -0.6125    0.4027 H   0  0  0  0  0  0  0  0  0  0  0  0
  -10.0674    1.7260    0.9961 H   0  0  0  0  0  0  0  0  0  0  0  0
   -8.2712    3.4108    1.2516 H   0  0  0  0  0  0  0  0  0  0  0  0
    3.5410   -2.2117   -0.5041 H   0  0  0  0  0  0  0  0  0  0  0  0
    3.0088   -2.5323   -2.1807 H   0  0  0  0  0  0  0  0  0  0  0  0
    4.9213   -1.3084   -2.7439 H   0  0  0  0  0  0  0  0  0  0  0  0
    4.9605    0.7563   -0.6344 H   0  0  0  0  0  0  0  0  0  0  0  0
    5.7718    1.3576    1.3746 H   0  0  0  0  0  0  0  0  0  0  0  0
    7.3538    1.7135    3.3693 H   0  0  0  0  0  0  0  0  0  0  0  0
  1  2  1  0
  1  3  1  0
  3  4  1  0
  4  5  1  0
  5  6  1  0
  6  7  2  0
  6  8  1  0
  8  9  1  0
  9 10  2  0
 10 11  1  0
 11 12  2  0
 12 13  1  0
 13 14  2  0
 14 15  1  0
 12 16  1  0
 16 17  1  0
 17 18  2  0
 18 19  1  0
 19 20  2  0
 20 21  1  0
 21 22  2  0
  4 23  1  0
 23 24  1  0
 24 25  1  0
 25 26  1  0
 26 27  2  0
 26 28  1  0
 28 29  2  0
 29 30  1  0
 30 31  2  0
 31 32  1  0
 31 33  1  0
 24  1  1  0
 33 28  1  0
 14  9  1  0
 21 16  1  0
  1 34  1  6
  3 35  1  0
  3 36  1  0
  5 37  1  0
  5 38  1  0
  8 39  1  0
 10 40  1  0
 11 41  1  0
 13 42  1  0
 17 43  1  0
 18 44  1  0
 19 45  1  0
 20 46  1  0
 23 47  1  0
 23 48  1  0
 24 49  1  6
 25 50  1  0
 29 51  1  0
 30 52  1  0
M  END
$$$$
