
     RDKit          3D

 48 50  0  0  0  0  0  0  0  0999 V2000
    2.2361    1.3008    0.8959 C   0  0  1  0  0  0  0  0  0  0  0  0
    1.4621    1.9123    2.0733 C   0  0  0  0  0  0  0  0  0  0  0  0
    2.8529    2.3255    0.1560 O   0  0  0  0  0  0  0  0  0  0  0  0
    3.2908    0.2473    1.3422 C   0  0  2  0  0  0  0  0  0  0  0  0
    4.0933   -0.1594    0.1814 N   0  0  0  0  0  0  0  0  0  0  0  0
    2.6812   -0.9827    2.0737 C   0  0  2  0  0  0  0  0  0  0  0  0
    3.7065   -1.8652    2.4495 O   0  0  0  0  0  0  0  0  0  0  0  0
    1.7055   -1.6961    1.2317 C   0  0  0  0  0  0  0  0  0  0  0  0
    0.8993   -2.2580    0.5329 C   0  0  0  0  0  0  0  0  0  0  0  0
   -0.0601   -2.9085   -0.3214 C   0  0  0  0  0  0  0  0  0  0  0  0
    0.1771   -4.2298   -0.7531 C   0  0  0  0  0  0  0  0  0  0  0  0
    1.2569   -4.9160   -0.2989 F   0  0  0  0  0  0  0  0  0  0  0  0
   -0.6865   -4.8448   -1.6792 C   0  0  0  0  0  0  0  0  0  0  0  0
   -1.7833   -4.1461   -2.2016 C   0  0  0  0  0  0  0  0  0  0  0  0
   -2.0115   -2.8441   -1.7628 C   0  0  0  0  0  0  0  0  0  0  0  0
   -1.1952   -2.2381   -0.8184 C   0  0  0  0  0  0  0  0  0  0  0  0
   -1.7057   -0.8689   -0.5980 C   0  0  0  0  0  0  0  0  0  0  0  0
   -1.3378   -0.0042    0.3605 C   0  0  0  0  0  0  0  0  0  0  0  0
   -1.8310    1.3781    0.4601 C   0  0  0  0  0  0  0  0  0  0  0  0
   -1.8477    2.3201   -0.5498 C   0  0  0  0  0  0  0  0  0  0  0  0
   -1.4659    2.0973   -1.8767 O   0  0  0  0  0  0  0  0  0  0  0  0
   -1.4892    3.1168   -2.8676 C   0  0  0  0  0  0  0  0  0  0  0  0
   -2.2603    3.5149    0.0117 C   0  0  0  0  0  0  0  0  0  0  0  0
   -2.4463    3.2529    1.3561 C   0  0  0  0  0  0  0  0  0  0  0  0
   -2.1703    1.9615    1.6244 N   0  0  0  0  0  0  0  0  0  0  0  0
   -2.8537   -0.7672   -1.5143 C   0  0  0  0  0  0  0  0  0  0  0  0
   -3.6435    0.2091   -1.6064 O   0  0  0  0  0  0  0  0  0  0  0  0
   -3.0397   -1.9812   -2.2304 N   0  0  0  0  0  0  0  0  0  0  0  0
    1.5001    0.8122    0.2226 H   0  0  0  0  0  0  0  0  0  0  0  0
    0.8247    2.7456    1.7083 H   0  0  0  0  0  0  0  0  0  0  0  0
    2.1620    2.3096    2.8387 H   0  0  0  0  0  0  0  0  0  0  0  0
    0.7948    1.1607    2.5421 H   0  0  0  0  0  0  0  0  0  0  0  0
    3.5103    2.7717    0.7522 H   0  0  0  0  0  0  0  0  0  0  0  0
    3.9759    0.7478    2.0635 H   0  0  0  0  0  0  0  0  0  0  0  0
    4.8845   -0.7647    0.4988 H   0  0  0  0  0  0  0  0  0  0  0  0
    3.5065   -0.7168   -0.4808 H   0  0  0  0  0  0  0  0  0  0  0  0
    2.1577   -0.6304    2.9901 H   0  0  0  0  0  0  0  0  0  0  0  0
    3.3314   -2.4693    3.1435 H   0  0  0  0  0  0  0  0  0  0  0  0
   -0.4902   -5.8569   -2.0088 H   0  0  0  0  0  0  0  0  0  0  0  0
   -2.4321   -4.6053   -2.9361 H   0  0  0  0  0  0  0  0  0  0  0  0
   -0.6654   -0.3230    1.1383 H   0  0  0  0  0  0  0  0  0  0  0  0
   -1.1482    2.6927   -3.8340 H   0  0  0  0  0  0  0  0  0  0  0  0
   -2.5227    3.5044   -2.9897 H   0  0  0  0  0  0  0  0  0  0  0  0
   -0.8077    3.9444   -2.5776 H   0  0  0  0  0  0  0  0  0  0  0  0
   -2.3801    4.4688   -0.4842 H   0  0  0  0  0  0  0  0  0  0  0  0
   -2.7470    3.9759    2.1027 H   0  0  0  0  0  0  0  0  0  0  0  0
   -2.1998    1.5068    2.5640 H   0  0  0  0  0  0  0  0  0  0  0  0
   -3.7886   -2.2007   -2.9241 H   0  0  0  0  0  0  0  0  0  0  0  0
  1  2  1  0
  1  3  1  0
  1  4  1  0
  4  5  1  0
  4  6  1  0
  6  7  1  0
  6  8  1  0
  8  9  3  0
  9 10  1  0
 10 11  2  0
 11 12  1  0
 11 13  1  0
 13 14  2  0
 14 15  1  0
 15 16  2  0
 16 17  1  0
 17 18  2  0
 18 19  1  0
 19 20  2  0
 20 21  1  0
 21 22  1  0
 20 23  1  0
 23 24  2  0
 24 25  1  0
 17 26  1  0
 26 27  2  0
 26 28  1  0
 16 10  1  0
 25 19  1  0
 28 15  1  0
  1 29  1  6
  2 30  1  0
  2 31  1  0
  2 32  1  0
  3 33  1  0
  4 34  1  1
  5 35  1  0
  5 36  1  0
  6 37  1  1
  7 38  1  0
 13 39  1  0
 14 40  1  0
 18 41  1  0
 22 42  1  0
 22 43  1  0
 22 44  1  0
 23 45  1  0
 24 46  1  0
 25 47  1  0
 28 48  1  0
M  END
$$$$
