
     RDKit          3D

 38 40  0  0  0  0  0  0  0  0999 V2000
   -3.3172    1.6018    0.0698 C   0  0  0  0  0  0  0  0  0  0  0  0
   -2.8157    0.2476   -0.4689 C   0  0  0  0  0  0  0  0  0  0  0  0
   -3.7073   -0.8912    0.0663 C   0  0  0  0  0  0  0  0  0  0  0  0
   -2.9371    0.2661   -2.0092 C   0  0  0  0  0  0  0  0  0  0  0  0
   -1.4116    0.0284   -0.0381 N   0  0  0  0  0  0  0  0  0  0  0  0
   -0.3533   -0.0804   -0.8419 N   0  0  0  0  0  4  0  0  0  0  0  0
    0.7713   -0.2366   -0.1027 C   0  0  0  0  0  0  0  0  0  0  0  0
    0.4067   -0.2478    1.2367 C   0  0  0  0  0  0  0  0  0  0  0  0
   -0.9473   -0.0641    1.2281 C   0  0  0  0  0  0  0  0  0  0  0  0
   -1.6680    0.0283    2.3725 N   0  0  0  0  0  0  0  0  0  0  0  0
   -1.0155   -0.0840    3.5655 C   0  0  0  0  0  0  0  0  0  0  0  0
    0.3340   -0.3113    3.5994 N   0  0  0  0  0  0  0  0  0  0  0  0
    1.0742   -0.4104    2.4560 C   0  0  0  0  0  0  0  0  0  0  0  0
    2.4575   -0.7564    2.5390 N   0  0  0  0  0  0  0  0  0  0  0  0
    2.1254   -0.2294   -0.6851 C   0  0  0  0  0  0  0  0  0  0  0  0
    2.4227   -1.0636   -1.7736 C   0  0  0  0  0  0  0  0  0  0  0  0
    3.6930   -1.0336   -2.3575 C   0  0  0  0  0  0  0  0  0  0  0  0
    4.6690   -0.1585   -1.8691 C   0  0  0  0  0  0  0  0  0  0  0  0
    6.2615   -0.1210   -2.6035 Cl  0  0  0  0  0  0  0  0  0  0  0  0
    4.3708    0.6928   -0.8000 C   0  0  0  0  0  0  0  0  0  0  0  0
    3.1012    0.6648   -0.2149 C   0  0  0  0  0  0  0  0  0  0  0  0
   -2.6465    2.4207   -0.2684 H   0  0  0  0  0  0  0  0  0  0  0  0
   -4.3457    1.8142   -0.2944 H   0  0  0  0  0  0  0  0  0  0  0  0
   -3.3443    1.6108    1.1787 H   0  0  0  0  0  0  0  0  0  0  0  0
   -3.3123   -1.8752   -0.2664 H   0  0  0  0  0  0  0  0  0  0  0  0
   -3.7481   -0.8891    1.1745 H   0  0  0  0  0  0  0  0  0  0  0  0
   -4.7491   -0.7848   -0.3064 H   0  0  0  0  0  0  0  0  0  0  0  0
   -3.9950    0.4087   -2.3199 H   0  0  0  0  0  0  0  0  0  0  0  0
   -2.3448    1.1012   -2.4413 H   0  0  0  0  0  0  0  0  0  0  0  0
   -2.5818   -0.6939   -2.4421 H   0  0  0  0  0  0  0  0  0  0  0  0
   -0.3684   -0.0067   -1.8828 H   0  0  0  0  0  0  0  0  0  0  0  0
   -1.5711   -0.0105    4.4901 H   0  0  0  0  0  0  0  0  0  0  0  0
    2.9314   -0.7763    3.4690 H   0  0  0  0  0  0  0  0  0  0  0  0
    2.9737   -1.1430    1.7204 H   0  0  0  0  0  0  0  0  0  0  0  0
    1.6748   -1.7431   -2.1638 H   0  0  0  0  0  0  0  0  0  0  0  0
    3.9164   -1.6882   -3.1902 H   0  0  0  0  0  0  0  0  0  0  0  0
    5.1189    1.3799   -0.4258 H   0  0  0  0  0  0  0  0  0  0  0  0
    2.8777    1.3424    0.5999 H   0  0  0  0  0  0  0  0  0  0  0  0
  1  2  1  0
  2  3  1  0
  2  4  1  0
  2  5  1  0
  5  6  1  0
  6  7  2  0
  7  8  1  0
  8  9  2  0
  9 10  1  0
 10 11  2  0
 11 12  1  0
 12 13  2  0
 13 14  1  0
  7 15  1  0
 15 16  2  0
 16 17  1  0
 17 18  2  0
 18 19  1  0
 18 20  1  0
 20 21  2  0
  9  5  1  0
 21 15  1  0
 13  8  1  0
  1 22  1  0
  1 23  1  0
  1 24  1  0
  3 25  1  0
  3 26  1  0
  3 27  1  0
  4 28  1  0
  4 29  1  0
  4 30  1  0
  6 31  1  0
 11 32  1  0
 14 33  1  0
 14 34  1  0
 16 35  1  0
 17 36  1  0
 20 37  1  0
 21 38  1  0
M  CHG  1   6   1
M  END
$$$$
