
     RDKit          3D

 67 70  0  0  0  0  0  0  0  0999 V2000
   -0.6728    1.7721   -0.8443 C   0  0  2  0  0  0  0  0  0  0  0  0
   -0.3828    2.7375   -1.9886 C   0  0  0  0  0  0  0  0  0  0  0  0
    1.0720    3.1881   -1.7527 C   0  0  0  0  0  0  0  0  0  0  0  0
    1.6255    2.3401   -0.5617 C   0  0  2  0  0  0  0  0  0  0  0  0
    1.4375    3.0715    0.6315 O   0  0  0  0  0  0  0  0  0  0  0  0
    3.1108    1.9838   -0.6958 C   0  0  0  0  0  0  0  0  0  0  0  0
    3.6874    2.1219   -1.7647 O   0  0  0  0  0  0  0  0  0  0  0  0
    3.8826    1.4201    0.4701 C   0  0  0  0  0  0  0  0  0  0  0  0
    4.0917    0.0210    0.2975 O   0  0  0  0  0  0  0  0  0  0  0  0
    5.0480   -0.5199   -0.5681 C   0  0  0  0  0  0  0  0  0  0  0  0
    5.8788    0.2227   -1.1590 O   0  0  0  0  0  0  0  0  0  0  0  0
    5.1117   -2.0045   -0.7536 C   0  0  0  0  0  0  0  0  0  0  0  0
    5.9492   -2.6732    0.3413 C   0  0  0  0  0  0  0  0  0  0  0  0
    5.2836   -2.5787    1.6804 C   0  0  0  0  0  0  0  0  0  0  0  0
    5.6518   -1.5732    2.5687 O   0  0  0  0  0  0  0  0  0  0  0  0
    4.3660   -3.3859    1.9877 O   0  0  0  0  0  0  0  0  0  0  0  0
    0.6846    1.0923   -0.5654 C   0  0  2  0  0  0  0  0  0  0  0  0
    1.1331    0.1068   -1.7021 C   0  0  0  0  0  0  0  0  0  0  0  0
    0.5808    0.3225    0.7824 C   0  0  0  0  0  0  0  0  0  0  0  0
   -0.6193   -0.6701    0.8293 C   0  0  2  0  0  0  0  0  0  0  0  0
   -0.3636   -1.8041    0.0447 O   0  0  0  0  0  0  0  0  0  0  0  0
   -1.9587    0.0144    0.4054 C   0  0  1  0  0  0  0  0  0  0  0  0
   -1.8374    0.7595   -0.9669 C   0  0  1  0  0  0  0  0  0  0  0  0
   -3.1812    1.4106   -1.4126 C   0  0  0  0  0  0  0  0  0  0  0  0
   -4.2725    1.4335   -0.3352 C   0  0  0  0  0  0  0  0  0  0  0  0
   -4.4596    0.0843    0.3264 C   0  0  0  0  0  0  0  0  0  0  0  0
   -5.6541   -0.1990    0.8746 C   0  0  0  0  0  0  0  0  0  0  0  0
   -5.8545   -1.3768    1.7325 C   0  0  0  0  0  0  0  0  0  0  0  0
   -7.0130   -1.6564    2.1397 O   0  0  0  0  0  0  0  0  0  0  0  0
   -4.7034   -2.2545    2.1223 C   0  0  0  0  0  0  0  0  0  0  0  0
   -3.3559   -1.5536    1.8887 C   0  0  0  0  0  0  0  0  0  0  0  0
   -3.2643   -0.8618    0.4942 C   0  0  2  0  0  0  0  0  0  0  0  0
   -3.3314   -1.9404   -0.6198 C   0  0  0  0  0  0  0  0  0  0  0  0
   -0.9325    2.4250    0.0245 H   0  0  0  0  0  0  0  0  0  0  0  0
   -1.0659    3.6140   -1.9644 H   0  0  0  0  0  0  0  0  0  0  0  0
   -0.4837    2.2219   -2.9687 H   0  0  0  0  0  0  0  0  0  0  0  0
    1.6442    3.0284   -2.6914 H   0  0  0  0  0  0  0  0  0  0  0  0
    1.1079    4.2758   -1.5241 H   0  0  0  0  0  0  0  0  0  0  0  0
    2.0228    3.8736    0.5935 H   0  0  0  0  0  0  0  0  0  0  0  0
    4.8530    1.9502    0.5837 H   0  0  0  0  0  0  0  0  0  0  0  0
    3.3162    1.5679    1.4123 H   0  0  0  0  0  0  0  0  0  0  0  0
    4.0811   -2.4220   -0.7550 H   0  0  0  0  0  0  0  0  0  0  0  0
    5.5645   -2.2305   -1.7435 H   0  0  0  0  0  0  0  0  0  0  0  0
    6.0898   -3.7453    0.0842 H   0  0  0  0  0  0  0  0  0  0  0  0
    6.9567   -2.2052    0.3887 H   0  0  0  0  0  0  0  0  0  0  0  0
    5.1975   -1.4840    3.4696 H   0  0  0  0  0  0  0  0  0  0  0  0
    0.4080   -0.6934   -1.9211 H   0  0  0  0  0  0  0  0  0  0  0  0
    2.0759   -0.4044   -1.4190 H   0  0  0  0  0  0  0  0  0  0  0  0
    1.3182    0.6319   -2.6610 H   0  0  0  0  0  0  0  0  0  0  0  0
    0.4518    1.0419    1.6197 H   0  0  0  0  0  0  0  0  0  0  0  0
    1.5221   -0.2303    0.9844 H   0  0  0  0  0  0  0  0  0  0  0  0
   -0.7128   -0.9857    1.8933 H   0  0  0  0  0  0  0  0  0  0  0  0
    0.3278   -2.3354    0.5195 H   0  0  0  0  0  0  0  0  0  0  0  0
   -2.0974    0.8063    1.1798 H   0  0  0  0  0  0  0  0  0  0  0  0
   -1.5820    0.0311   -1.7577 H   0  0  0  0  0  0  0  0  0  0  0  0
   -3.0365    2.4486   -1.7731 H   0  0  0  0  0  0  0  0  0  0  0  0
   -3.5809    0.8442   -2.2829 H   0  0  0  0  0  0  0  0  0  0  0  0
   -5.2205    1.7671   -0.8128 H   0  0  0  0  0  0  0  0  0  0  0  0
   -4.0072    2.1813    0.4430 H   0  0  0  0  0  0  0  0  0  0  0  0
   -6.4858    0.4844    0.7469 H   0  0  0  0  0  0  0  0  0  0  0  0
   -4.7901   -2.5198    3.1981 H   0  0  0  0  0  0  0  0  0  0  0  0
   -4.7512   -3.1987    1.5398 H   0  0  0  0  0  0  0  0  0  0  0  0
   -2.5562   -2.3169    2.0001 H   0  0  0  0  0  0  0  0  0  0  0  0
   -3.2123   -0.7941    2.6896 H   0  0  0  0  0  0  0  0  0  0  0  0
   -4.3251   -2.4351   -0.6316 H   0  0  0  0  0  0  0  0  0  0  0  0
   -3.1955   -1.5102   -1.6303 H   0  0  0  0  0  0  0  0  0  0  0  0
   -2.5728   -2.7330   -0.4639 H   0  0  0  0  0  0  0  0  0  0  0  0
  1  2  1  0
  2  3  1  0
  3  4  1  0
  4  5  1  1
  4  6  1  0
  6  7  2  0
  6  8  1  0
  8  9  1  0
  9 10  1  0
 10 11  2  0
 10 12  1  0
 12 13  1  0
 13 14  1  0
 14 15  1  0
 14 16  2  0
  4 17  1  0
 17 18  1  6
 17 19  1  0
 19 20  1  0
 20 21  1  0
 20 22  1  0
 22 23  1  0
 23 24  1  0
 24 25  1  0
 25 26  1  0
 26 27  2  0
 27 28  1  0
 28 29  2  0
 28 30  1  0
 30 31  1  0
 31 32  1  0
 32 33  1  6
 17  1  1  0
 32 22  1  0
 23  1  1  0
 32 26  1  0
  1 34  1  1
  2 35  1  0
  2 36  1  0
  3 37  1  0
  3 38  1  0
  5 39  1  0
  8 40  1  0
  8 41  1  0
 12 42  1  0
 12 43  1  0
 13 44  1  0
 13 45  1  0
 15 46  1  0
 18 47  1  0
 18 48  1  0
 18 49  1  0
 19 50  1  0
 19 51  1  0
 20 52  1  1
 21 53  1  0
 22 54  1  1
 23 55  1  6
 24 56  1  0
 24 57  1  0
 25 58  1  0
 25 59  1  0
 27 60  1  0
 30 61  1  0
 30 62  1  0
 31 63  1  0
 31 64  1  0
 33 65  1  0
 33 66  1  0
 33 67  1  0
M  END
$$$$
