
     RDKit          3D

 18 18  0  0  0  0  0  0  0  0999 V2000
   -2.5237   -0.2678   -0.7297 O   0  0  0  0  0  0  0  0  0  0  0  0
   -1.4807    0.3988   -0.0673 C   0  0  1  0  0  0  0  0  0  0  0  0
   -1.1156   -0.3214    1.2357 C   0  0  0  0  0  0  0  0  0  0  0  0
    0.3238   -0.5817    1.2258 N   0  0  0  0  0  0  0  0  0  0  0  0
    0.6950   -0.6164   -0.1889 C   0  0  1  0  0  0  0  0  0  0  0  0
   -0.2165    0.3650   -0.9120 C   0  0  0  0  0  0  0  0  0  0  0  0
    2.1539   -0.3039   -0.3936 C   0  0  0  0  0  0  0  0  0  0  0  0
    2.6754    0.9195    0.0189 O   0  0  0  0  0  0  0  0  0  0  0  0
    2.9074   -1.1521   -0.9420 O   0  0  0  0  0  0  0  0  0  0  0  0
   -3.3553   -0.0548   -0.2308 H   0  0  0  0  0  0  0  0  0  0  0  0
   -1.7672    1.4574    0.1364 H   0  0  0  0  0  0  0  0  0  0  0  0
   -1.6518   -1.2927    1.3139 H   0  0  0  0  0  0  0  0  0  0  0  0
   -1.3980    0.2966    2.1175 H   0  0  0  0  0  0  0  0  0  0  0  0
    0.7886    0.2383    1.6849 H   0  0  0  0  0  0  0  0  0  0  0  0
    0.4887   -1.6410   -0.5756 H   0  0  0  0  0  0  0  0  0  0  0  0
    0.2334    1.3828   -0.9367 H   0  0  0  0  0  0  0  0  0  0  0  0
   -0.4125    0.0346   -1.9561 H   0  0  0  0  0  0  0  0  0  0  0  0
    3.6552    1.1386   -0.1155 H   0  0  0  0  0  0  0  0  0  0  0  0
  1  2  1  0
  2  3  1  0
  3  4  1  0
  4  5  1  0
  5  6  1  0
  5  7  1  0
  7  8  1  0
  7  9  2  0
  6  2  1  0
  1 10  1  0
  2 11  1  1
  3 12  1  0
  3 13  1  0
  4 14  1  0
  5 15  1  6
  6 16  1  0
  6 17  1  0
  8 18  1  0
M  END
$$$$
