
     RDKit          3D

 48 52  0  0  0  0  0  0  0  0999 V2000
   -2.3528   -1.3223    0.0420 C   0  0  1  0  0  0  0  0  0  0  0  0
   -1.9549   -2.7426   -0.2918 C   0  0  0  0  0  0  0  0  0  0  0  0
   -2.6540   -3.7915    0.1542 C   0  0  0  0  0  0  0  0  0  0  0  0
   -3.8943   -3.6104    0.9818 C   0  0  0  0  0  0  0  0  0  0  0  0
   -3.9270   -2.2859    1.6937 C   0  0  0  0  0  0  0  0  0  0  0  0
   -3.2459   -1.2095    1.2593 C   0  0  0  0  0  0  0  0  0  0  0  0
   -3.4540    0.0843    1.9711 C   0  0  0  0  0  0  0  0  0  0  0  0
   -3.0334    1.3145    1.6158 C   0  0  0  0  0  0  0  0  0  0  0  0
   -2.1994    1.7189    0.4505 C   0  0  0  0  0  0  0  0  0  0  0  0
   -2.2798    3.0554    0.0179 C   0  0  0  0  0  0  0  0  0  0  0  0
   -1.4776    3.5218   -1.0285 C   0  0  0  0  0  0  0  0  0  0  0  0
   -1.5848    4.8490   -1.4382 O   0  0  0  0  0  0  0  0  0  0  0  0
   -0.5761    2.6542   -1.6532 C   0  0  0  0  0  0  0  0  0  0  0  0
   -0.4755    1.3297   -1.2288 C   0  0  0  0  0  0  0  0  0  0  0  0
   -1.2673    0.8630   -0.1703 C   0  0  0  0  0  0  0  0  0  0  0  0
   -1.1596   -0.4998    0.2376 N   0  0  0  0  0  0  0  0  0  0  0  0
   -0.1297   -0.8640    1.2238 C   0  0  0  0  0  0  0  0  0  0  0  0
    1.2242   -0.9023    0.5808 C   0  0  0  0  0  0  0  0  0  0  0  0
    1.9593    0.2397    0.4938 N   0  0  0  0  0  0  0  0  0  0  0  0
    3.1683    0.2543   -0.1264 C   0  0  0  0  0  0  0  0  0  0  0  0
    3.9337    1.4225   -0.2358 C   0  0  0  0  0  0  0  0  0  0  0  0
    3.4720    2.6660    0.2984 N   0  0  0  0  0  0  0  0  0  0  0  0
    5.1366    1.3702   -0.8691 N   0  0  0  0  0  0  0  0  0  0  0  0
    5.6103    0.2098   -1.4003 C   0  0  0  0  0  0  0  0  0  0  0  0
    6.8755    0.1916   -2.0568 N   0  0  0  0  0  0  0  0  0  0  0  0
    4.8761   -0.9316   -1.3082 N   0  0  0  0  0  0  0  0  0  0  0  0
    3.6700   -0.9318   -0.6862 C   0  0  0  0  0  0  0  0  0  0  0  0
    2.9370   -2.0722   -0.6038 N   0  0  0  0  0  0  0  0  0  0  0  0
    1.7249   -2.0836    0.0123 C   0  0  0  0  0  0  0  0  0  0  0  0
   -2.9299   -0.9465   -0.8329 H   0  0  0  0  0  0  0  0  0  0  0  0
   -1.1153   -2.9131   -0.9587 H   0  0  0  0  0  0  0  0  0  0  0  0
   -2.3650   -4.7928   -0.1501 H   0  0  0  0  0  0  0  0  0  0  0  0
   -4.7827   -3.6857    0.3203 H   0  0  0  0  0  0  0  0  0  0  0  0
   -3.9474   -4.4259    1.7335 H   0  0  0  0  0  0  0  0  0  0  0  0
   -4.5970   -2.2000    2.5416 H   0  0  0  0  0  0  0  0  0  0  0  0
   -4.0623    0.0462    2.8687 H   0  0  0  0  0  0  0  0  0  0  0  0
   -3.3731    2.1251    2.2513 H   0  0  0  0  0  0  0  0  0  0  0  0
   -2.9700    3.7420    0.4939 H   0  0  0  0  0  0  0  0  0  0  0  0
   -1.0176    5.2179   -2.1926 H   0  0  0  0  0  0  0  0  0  0  0  0
    0.0453    3.0046   -2.4674 H   0  0  0  0  0  0  0  0  0  0  0  0
    0.2170    0.6625   -1.7263 H   0  0  0  0  0  0  0  0  0  0  0  0
   -0.1252   -0.1183    2.0488 H   0  0  0  0  0  0  0  0  0  0  0  0
   -0.3547   -1.8481    1.6898 H   0  0  0  0  0  0  0  0  0  0  0  0
    2.5478    2.7453    0.7781 H   0  0  0  0  0  0  0  0  0  0  0  0
    4.0592    3.5244    0.2062 H   0  0  0  0  0  0  0  0  0  0  0  0
    7.4443    1.0639   -2.1326 H   0  0  0  0  0  0  0  0  0  0  0  0
    7.2451   -0.6942   -2.4679 H   0  0  0  0  0  0  0  0  0  0  0  0
    1.1597   -3.0049    0.0608 H   0  0  0  0  0  0  0  0  0  0  0  0
  1  2  1  0
  2  3  2  0
  3  4  1  0
  4  5  1  0
  5  6  2  0
  6  7  1  0
  7  8  2  0
  8  9  1  0
  9 10  2  0
 10 11  1  0
 11 12  1  0
 11 13  2  0
 13 14  1  0
 14 15  2  0
 15 16  1  0
 16 17  1  0
 17 18  1  0
 18 19  2  0
 19 20  1  0
 20 21  2  0
 21 22  1  0
 21 23  1  0
 23 24  2  0
 24 25  1  0
 24 26  1  0
 26 27  2  0
 27 28  1  0
 28 29  2  0
  6  1  1  0
 15  9  1  0
 29 18  1  0
 16  1  1  0
 27 20  1  0
  1 30  1  6
  2 31  1  0
  3 32  1  0
  4 33  1  0
  4 34  1  0
  5 35  1  0
  7 36  1  0
  8 37  1  0
 10 38  1  0
 12 39  1  0
 13 40  1  0
 14 41  1  0
 17 42  1  0
 17 43  1  0
 22 44  1  0
 22 45  1  0
 25 46  1  0
 25 47  1  0
 29 48  1  0
M  END
$$$$
