
     RDKit          3D

 45 47  0  0  0  0  0  0  0  0999 V2000
    6.4396    2.9172    0.2806 N   0  0  0  0  0  0  0  0  0  0  0  0
    6.6568    1.5637   -0.1184 C   0  0  0  0  0  0  0  0  0  0  0  0
    7.8739    1.1878   -0.5966 N   0  0  0  0  0  0  0  0  0  0  0  0
    8.1291   -0.0917   -0.9777 C   0  0  0  0  0  0  0  0  0  0  0  0
    7.1288   -1.0619   -0.8883 C   0  0  0  0  0  0  0  0  0  0  0  0
    5.8611   -0.7067   -0.4187 C   0  0  0  0  0  0  0  0  0  0  0  0
    4.8743   -1.6990   -0.3219 O   0  0  0  0  0  0  0  0  0  0  0  0
    3.4925   -1.4867   -0.4403 C   0  0  0  0  0  0  0  0  0  0  0  0
    2.6177   -2.3289    0.2564 C   0  0  0  0  0  0  0  0  0  0  0  0
    3.1110   -3.3220    1.0377 F   0  0  0  0  0  0  0  0  0  0  0  0
    1.2339   -2.1543    0.1526 C   0  0  0  0  0  0  0  0  0  0  0  0
    0.7048   -1.1298   -0.6522 C   0  0  0  0  0  0  0  0  0  0  0  0
   -0.7141   -0.9443   -0.7954 N   0  0  0  0  0  0  0  0  0  0  0  0
   -1.6660   -1.1594    0.2581 C   0  0  0  0  0  0  0  0  0  0  0  0
   -1.2729   -1.3131    1.4465 O   0  0  0  0  0  0  0  0  0  0  0  0
   -3.0692   -1.1551   -0.0480 N   0  0  0  0  0  0  0  0  0  0  0  0
   -4.1080   -1.3313    0.9291 C   0  0  0  0  0  0  0  0  0  0  0  0
   -3.8276   -1.4958    2.1473 O   0  0  0  0  0  0  0  0  0  0  0  0
   -5.5457   -1.2735    0.5106 C   0  0  0  0  0  0  0  0  0  0  0  0
   -6.0028    0.1568    0.4308 C   0  0  0  0  0  0  0  0  0  0  0  0
   -6.4758    0.8136    1.5794 C   0  0  0  0  0  0  0  0  0  0  0  0
   -6.8700    2.1536    1.5125 C   0  0  0  0  0  0  0  0  0  0  0  0
   -6.7866    2.8492    0.3028 C   0  0  0  0  0  0  0  0  0  0  0  0
   -7.1677    4.1489    0.2403 F   0  0  0  0  0  0  0  0  0  0  0  0
   -6.3056    2.2060   -0.8414 C   0  0  0  0  0  0  0  0  0  0  0  0
   -5.9106    0.8660   -0.7787 C   0  0  0  0  0  0  0  0  0  0  0  0
    1.5818   -0.3157   -1.3833 C   0  0  0  0  0  0  0  0  0  0  0  0
    2.9645   -0.4892   -1.2784 C   0  0  0  0  0  0  0  0  0  0  0  0
    5.6278    0.6188   -0.0140 C   0  0  0  0  0  0  0  0  0  0  0  0
    5.5132    3.2262    0.6513 H   0  0  0  0  0  0  0  0  0  0  0  0
    7.2100    3.6178    0.2043 H   0  0  0  0  0  0  0  0  0  0  0  0
    9.1100   -0.3566   -1.3490 H   0  0  0  0  0  0  0  0  0  0  0  0
    7.3345   -2.0812   -1.1895 H   0  0  0  0  0  0  0  0  0  0  0  0
    0.5805   -2.8369    0.6794 H   0  0  0  0  0  0  0  0  0  0  0  0
   -1.0686   -0.5450   -1.6939 H   0  0  0  0  0  0  0  0  0  0  0  0
   -3.3509   -1.0150   -1.0443 H   0  0  0  0  0  0  0  0  0  0  0  0
   -6.1733   -1.8341    1.2377 H   0  0  0  0  0  0  0  0  0  0  0  0
   -5.6679   -1.7755   -0.4736 H   0  0  0  0  0  0  0  0  0  0  0  0
   -6.5370    0.2885    2.5247 H   0  0  0  0  0  0  0  0  0  0  0  0
   -7.2368    2.6529    2.4001 H   0  0  0  0  0  0  0  0  0  0  0  0
   -6.2354    2.7458   -1.7770 H   0  0  0  0  0  0  0  0  0  0  0  0
   -5.5328    0.3825   -1.6711 H   0  0  0  0  0  0  0  0  0  0  0  0
    1.1918    0.4578   -2.0331 H   0  0  0  0  0  0  0  0  0  0  0  0
    3.6193    0.1401   -1.8666 H   0  0  0  0  0  0  0  0  0  0  0  0
    4.6686    0.9098    0.3944 H   0  0  0  0  0  0  0  0  0  0  0  0
  1  2  1  0
  2  3  2  0
  3  4  1  0
  4  5  2  0
  5  6  1  0
  6  7  1  0
  7  8  1  0
  8  9  2  0
  9 10  1  0
  9 11  1  0
 11 12  2  0
 12 13  1  0
 13 14  1  0
 14 15  2  0
 14 16  1  0
 16 17  1  0
 17 18  2  0
 17 19  1  0
 19 20  1  0
 20 21  2  0
 21 22  1  0
 22 23  2  0
 23 24  1  0
 23 25  1  0
 25 26  2  0
 12 27  1  0
 27 28  2  0
  6 29  2  0
 29  2  1  0
 28  8  1  0
 26 20  1  0
  1 30  1  0
  1 31  1  0
  4 32  1  0
  5 33  1  0
 11 34  1  0
 13 35  1  0
 16 36  1  0
 19 37  1  0
 19 38  1  0
 21 39  1  0
 22 40  1  0
 25 41  1  0
 26 42  1  0
 27 43  1  0
 28 44  1  0
 29 45  1  0
M  END
$$$$
