
     RDKit          3D

 52 55  0  0  0  0  0  0  0  0999 V2000
   -2.7631    0.5814   -0.8338 C   0  0  2  0  0  0  0  0  0  0  0  0
   -3.2800    0.6327   -2.2749 C   0  0  0  0  0  0  0  0  0  0  0  0
   -1.4149    1.1600   -0.7288 N   0  0  0  0  0  0  0  0  0  0  0  0
   -1.0525    2.1480    0.2735 C   0  0  0  0  0  0  0  0  0  0  0  0
    0.4210    2.5104    0.0123 C   0  0  0  0  0  0  0  0  0  0  0  0
    0.9628    1.4954   -1.0208 C   0  0  2  0  0  0  0  0  0  0  0  0
    1.6212    2.1299   -2.1730 N   0  0  0  0  0  0  0  0  0  0  0  0
    3.2095    2.7028   -1.7520 S   0  0  0  0  0  6  0  0  0  0  0  0
    3.1140    3.7858   -0.7137 O   0  0  0  0  0  0  0  0  0  0  0  0
    3.8701    3.2710   -2.9760 O   0  0  0  0  0  0  0  0  0  0  0  0
    4.1938    1.3862   -1.1395 C   0  0  0  0  0  0  0  0  0  0  0  0
    4.4998    1.1640    0.2011 C   0  0  0  0  0  0  0  0  0  0  0  0
    5.2657    0.0080    0.3795 C   0  0  0  0  0  0  0  0  0  0  0  0
    5.5468   -0.6596   -0.8044 C   0  0  0  0  0  0  0  0  0  0  0  0
    4.8543    0.1599   -2.0969 S   0  0  0  0  0  0  0  0  0  0  0  0
    6.2935   -1.8346   -0.8296 C   0  0  0  0  0  0  0  0  0  0  0  0
    6.7691   -2.3445    0.3884 C   0  0  0  0  0  0  0  0  0  0  0  0
    6.4903   -1.6766    1.5985 C   0  0  0  0  0  0  0  0  0  0  0  0
    7.0900   -2.3272    3.1128 Cl  0  0  0  0  0  0  0  0  0  0  0  0
    5.7327   -0.4916    1.5978 C   0  0  0  0  0  0  0  0  0  0  0  0
   -0.2572    0.7850   -1.4600 C   0  0  0  0  0  0  0  0  0  0  0  0
   -0.2610   -0.0885   -2.3680 O   0  0  0  0  0  0  0  0  0  0  0  0
   -2.7865   -0.8325   -0.2911 C   0  0  0  0  0  0  0  0  0  0  0  0
   -1.9166   -1.6521   -0.6935 O   0  0  0  0  0  0  0  0  0  0  0  0
   -3.7806   -1.2723    0.6610 N   0  0  0  0  0  0  0  0  0  0  0  0
   -5.0423   -0.5426    0.8430 C   0  0  0  0  0  0  0  0  0  0  0  0
   -6.1336   -1.4870    1.3566 C   0  0  0  0  0  0  0  0  0  0  0  0
   -5.6881   -2.2027    2.4915 O   0  0  0  0  0  0  0  0  0  0  0  0
   -4.6301   -3.0639    2.1209 C   0  0  0  0  0  0  0  0  0  0  0  0
   -3.4037   -2.2596    1.6809 C   0  0  0  0  0  0  0  0  0  0  0  0
   -3.4427    1.2152   -0.2264 H   0  0  0  0  0  0  0  0  0  0  0  0
   -2.7227   -0.0668   -2.9313 H   0  0  0  0  0  0  0  0  0  0  0  0
   -3.1782    1.6634   -2.6763 H   0  0  0  0  0  0  0  0  0  0  0  0
   -4.3538    0.3515   -2.3042 H   0  0  0  0  0  0  0  0  0  0  0  0
   -1.7021    3.0451    0.1793 H   0  0  0  0  0  0  0  0  0  0  0  0
   -1.1682    1.7073    1.2875 H   0  0  0  0  0  0  0  0  0  0  0  0
    0.4740    3.5523   -0.3717 H   0  0  0  0  0  0  0  0  0  0  0  0
    1.0094    2.4549    0.9540 H   0  0  0  0  0  0  0  0  0  0  0  0
    1.6313    0.7545   -0.5314 H   0  0  0  0  0  0  0  0  0  0  0  0
    1.0579    2.9450   -2.5101 H   0  0  0  0  0  0  0  0  0  0  0  0
    4.1731    1.8053    1.0096 H   0  0  0  0  0  0  0  0  0  0  0  0
    6.5014   -2.3424   -1.7624 H   0  0  0  0  0  0  0  0  0  0  0  0
    7.3519   -3.2566    0.3942 H   0  0  0  0  0  0  0  0  0  0  0  0
    5.5151    0.0238    2.5252 H   0  0  0  0  0  0  0  0  0  0  0  0
   -4.8883    0.2794    1.5751 H   0  0  0  0  0  0  0  0  0  0  0  0
   -5.3878   -0.1112   -0.1202 H   0  0  0  0  0  0  0  0  0  0  0  0
   -6.4631   -2.1785    0.5473 H   0  0  0  0  0  0  0  0  0  0  0  0
   -7.0192   -0.8827    1.6457 H   0  0  0  0  0  0  0  0  0  0  0  0
   -4.3532   -3.6817    3.0010 H   0  0  0  0  0  0  0  0  0  0  0  0
   -4.9443   -3.7675    1.3159 H   0  0  0  0  0  0  0  0  0  0  0  0
   -2.9747   -1.7286    2.5580 H   0  0  0  0  0  0  0  0  0  0  0  0
   -2.6404   -2.9672    1.2917 H   0  0  0  0  0  0  0  0  0  0  0  0
  1  2  1  0
  1  3  1  0
  3  4  1  0
  4  5  1  0
  5  6  1  0
  6  7  1  0
  7  8  1  0
  8  9  2  0
  8 10  2  0
  8 11  1  0
 11 12  2  0
 12 13  1  0
 13 14  2  0
 14 15  1  0
 14 16  1  0
 16 17  2  0
 17 18  1  0
 18 19  1  0
 18 20  2  0
  6 21  1  0
 21 22  2  0
  1 23  1  0
 23 24  2  0
 23 25  1  0
 25 26  1  0
 26 27  1  0
 27 28  1  0
 28 29  1  0
 29 30  1  0
 21  3  1  0
 30 25  1  0
 15 11  1  0
 20 13  1  0
  1 31  1  1
  2 32  1  0
  2 33  1  0
  2 34  1  0
  4 35  1  0
  4 36  1  0
  5 37  1  0
  5 38  1  0
  6 39  1  1
  7 40  1  0
 12 41  1  0
 16 42  1  0
 17 43  1  0
 20 44  1  0
 26 45  1  0
 26 46  1  0
 27 47  1  0
 27 48  1  0
 29 49  1  0
 29 50  1  0
 30 51  1  0
 30 52  1  0
M  END
$$$$
