
     RDKit          3D

 69 73  0  0  0  0  0  0  0  0999 V2000
   -0.0160   -1.5030    2.8336 C   0  0  0  0  0  0  0  0  0  0  0  0
   -0.6554   -2.5179    1.8892 C   0  0  0  0  0  0  0  0  0  0  0  0
   -0.5967   -2.0765    0.4193 C   0  0  0  0  0  0  0  0  0  0  0  0
   -1.4513   -0.9054    0.1703 N   0  0  0  0  0  0  0  0  0  0  0  0
   -2.7952   -0.9022   -0.0202 C   0  0  0  0  0  0  0  0  0  0  0  0
   -3.2990    0.3456   -0.1365 N   0  0  0  0  0  0  0  0  0  0  0  0
   -2.2383    1.1629    0.0037 C   0  0  0  0  0  0  0  0  0  0  0  0
   -1.0953    0.4002    0.1986 C   0  0  0  0  0  0  0  0  0  0  0  0
    0.2605    0.9069    0.4968 C   0  0  0  0  0  0  0  0  0  0  0  0
    0.4605    1.8717    1.4913 C   0  0  0  0  0  0  0  0  0  0  0  0
    1.7575    2.3173    1.7367 C   0  0  0  0  0  0  0  0  0  0  0  0
    2.7941    1.8142    1.0191 N   0  0  0  0  0  0  0  0  0  0  0  0
    2.5894    0.8759    0.0546 C   0  0  0  0  0  0  0  0  0  0  0  0
    3.6896    0.3443   -0.6947 N   0  0  0  0  0  0  0  0  0  0  0  0
    5.0821    0.7391   -0.4411 C   0  0  0  0  0  0  0  0  0  0  0  0
    5.9849    0.3428   -1.6267 C   0  0  0  0  0  0  0  0  0  0  0  0
    6.1155   -1.1859   -1.8006 C   0  0  0  0  0  0  0  0  0  0  0  0
    5.9636   -1.9698   -0.4836 C   0  0  0  0  0  0  0  0  0  0  0  0
    6.4370   -1.1475    0.7163 C   0  0  0  0  0  0  0  0  0  0  0  0
    5.5941    0.1303    0.8931 C   0  0  0  0  0  0  0  0  0  0  0  0
    1.3287    0.4355   -0.1990 N   0  0  0  0  0  0  0  0  0  0  0  0
   -2.3474    2.6349   -0.0904 C   0  0  0  0  0  0  0  0  0  0  0  0
   -1.3518    3.3999   -0.7210 C   0  0  0  0  0  0  0  0  0  0  0  0
   -1.4790    4.7882   -0.8102 C   0  0  0  0  0  0  0  0  0  0  0  0
   -2.6057    5.4294   -0.2856 C   0  0  0  0  0  0  0  0  0  0  0  0
   -2.7296    7.1784   -0.4178 Cl  0  0  0  0  0  0  0  0  0  0  0  0
   -3.6171    4.6709    0.3266 C   0  0  0  0  0  0  0  0  0  0  0  0
   -5.0552    5.4357    0.9892 Cl  0  0  0  0  0  0  0  0  0  0  0  0
   -3.4874    3.2798    0.4154 C   0  0  0  0  0  0  0  0  0  0  0  0
   -3.6459   -2.1463   -0.1973 C   0  0  0  0  0  0  0  0  0  0  0  0
   -3.6736   -2.5719   -1.6760 C   0  0  0  0  0  0  0  0  0  0  0  0
   -4.4881   -1.5983   -2.5588 C   0  0  0  0  0  0  0  0  0  0  0  0
   -5.4587   -0.7954   -1.7933 N   0  0  0  0  0  0  0  0  0  0  0  0
   -6.1014   -1.5871   -0.7405 C   0  0  0  0  0  0  0  0  0  0  0  0
   -5.0834   -1.9595    0.3528 C   0  0  0  0  0  0  0  0  0  0  0  0
    0.0236   -1.9264    3.8591 H   0  0  0  0  0  0  0  0  0  0  0  0
    1.0194   -1.2654    2.5088 H   0  0  0  0  0  0  0  0  0  0  0  0
   -0.6202   -0.5727    2.8674 H   0  0  0  0  0  0  0  0  0  0  0  0
   -0.1127   -3.4825    1.9893 H   0  0  0  0  0  0  0  0  0  0  0  0
   -1.7082   -2.6882    2.1983 H   0  0  0  0  0  0  0  0  0  0  0  0
    0.4531   -1.8747    0.1291 H   0  0  0  0  0  0  0  0  0  0  0  0
   -0.9251   -2.9200   -0.2236 H   0  0  0  0  0  0  0  0  0  0  0  0
   -0.3676    2.2625    2.0695 H   0  0  0  0  0  0  0  0  0  0  0  0
    1.9416    3.0610    2.5003 H   0  0  0  0  0  0  0  0  0  0  0  0
    3.4680   -0.3109   -1.4784 H   0  0  0  0  0  0  0  0  0  0  0  0
    5.1188    1.8486   -0.3607 H   0  0  0  0  0  0  0  0  0  0  0  0
    5.5937    0.7923   -2.5653 H   0  0  0  0  0  0  0  0  0  0  0  0
    6.9965    0.7734   -1.4561 H   0  0  0  0  0  0  0  0  0  0  0  0
    5.3494   -1.5461   -2.5211 H   0  0  0  0  0  0  0  0  0  0  0  0
    7.1099   -1.4071   -2.2461 H   0  0  0  0  0  0  0  0  0  0  0  0
    4.8972   -2.2487   -0.3340 H   0  0  0  0  0  0  0  0  0  0  0  0
    6.5502   -2.9119   -0.5436 H   0  0  0  0  0  0  0  0  0  0  0  0
    7.5050   -0.8730    0.5692 H   0  0  0  0  0  0  0  0  0  0  0  0
    6.3732   -1.7645    1.6386 H   0  0  0  0  0  0  0  0  0  0  0  0
    6.2167    0.8851    1.4213 H   0  0  0  0  0  0  0  0  0  0  0  0
    4.7375   -0.0967    1.5641 H   0  0  0  0  0  0  0  0  0  0  0  0
   -0.4851    2.9258   -1.1624 H   0  0  0  0  0  0  0  0  0  0  0  0
   -0.7020    5.3652   -1.2956 H   0  0  0  0  0  0  0  0  0  0  0  0
   -4.2712    2.7029    0.8917 H   0  0  0  0  0  0  0  0  0  0  0  0
   -3.1850   -2.9718    0.3832 H   0  0  0  0  0  0  0  0  0  0  0  0
   -4.1357   -3.5820   -1.7390 H   0  0  0  0  0  0  0  0  0  0  0  0
   -2.6390   -2.6653   -2.0729 H   0  0  0  0  0  0  0  0  0  0  0  0
   -3.7857   -0.9004   -3.0631 H   0  0  0  0  0  0  0  0  0  0  0  0
   -5.0107   -2.1759   -3.3544 H   0  0  0  0  0  0  0  0  0  0  0  0
   -6.2009   -0.4649   -2.4535 H   0  0  0  0  0  0  0  0  0  0  0  0
   -6.9259   -0.9975   -0.2839 H   0  0  0  0  0  0  0  0  0  0  0  0
   -6.5499   -2.5094   -1.1757 H   0  0  0  0  0  0  0  0  0  0  0  0
   -5.4196   -2.9084    0.8258 H   0  0  0  0  0  0  0  0  0  0  0  0
   -5.0954   -1.1894    1.1556 H   0  0  0  0  0  0  0  0  0  0  0  0
  1  2  1  0
  2  3  1  0
  3  4  1  0
  4  5  1  0
  5  6  2  0
  6  7  1  0
  7  8  2  0
  8  9  1  0
  9 10  2  0
 10 11  1  0
 11 12  2  0
 12 13  1  0
 13 14  1  0
 14 15  1  0
 15 16  1  0
 16 17  1  0
 17 18  1  0
 18 19  1  0
 19 20  1  0
 13 21  2  0
  7 22  1  0
 22 23  2  0
 23 24  1  0
 24 25  2  0
 25 26  1  0
 25 27  1  0
 27 28  1  0
 27 29  2  0
  5 30  1  0
 30 31  1  0
 31 32  1  0
 32 33  1  0
 33 34  1  0
 34 35  1  0
  8  4  1  0
 21  9  1  0
 29 22  1  0
 35 30  1  0
 20 15  1  0
  1 36  1  0
  1 37  1  0
  1 38  1  0
  2 39  1  0
  2 40  1  0
  3 41  1  0
  3 42  1  0
 10 43  1  0
 11 44  1  0
 14 45  1  0
 15 46  1  0
 16 47  1  0
 16 48  1  0
 17 49  1  0
 17 50  1  0
 18 51  1  0
 18 52  1  0
 19 53  1  0
 19 54  1  0
 20 55  1  0
 20 56  1  0
 23 57  1  0
 24 58  1  0
 29 59  1  0
 30 60  1  0
 31 61  1  0
 31 62  1  0
 32 63  1  0
 32 64  1  0
 33 65  1  0
 34 66  1  0
 34 67  1  0
 35 68  1  0
 35 69  1  0
M  END
$$$$
