
     RDKit          3D

 48 50  0  0  0  0  0  0  0  0999 V2000
    0.7777   -0.6686   -0.2082 C   0  0  1  0  0  0  0  0  0  0  0  0
    1.3614   -1.1396    1.1328 C   0  0  0  0  0  0  0  0  0  0  0  0
    2.2643   -0.1836    1.6527 O   0  0  0  0  0  0  0  0  0  0  0  0
    3.8719   -0.6394    1.2998 P   0  0  0  0  0  5  0  0  0  0  0  0
    4.2100   -2.1189    2.0539 O   0  0  0  0  0  0  0  0  0  0  0  0
    4.0473   -0.7792   -0.1963 O   0  0  0  0  0  0  0  0  0  0  0  0
    4.9012    0.5854    1.8826 O   0  0  0  0  0  0  0  0  0  0  0  0
    6.5024    0.0096    1.8033 P   0  0  0  0  0  5  0  0  0  0  0  0
    7.5509    1.3033    2.1013 O   0  0  0  0  0  0  0  0  0  0  0  0
    6.8558   -0.6185    0.2687 O   0  0  0  0  0  0  0  0  0  0  0  0
    6.7273   -1.0490    2.8611 O   0  0  0  0  0  0  0  0  0  0  0  0
   -0.2157   -1.5726   -0.6369 O   0  0  0  0  0  0  0  0  0  0  0  0
   -1.2335   -0.8289   -1.2774 C   0  0  1  0  0  0  0  0  0  0  0  0
   -2.5239   -1.1059   -0.6388 N   0  0  0  0  0  0  0  0  0  0  0  0
   -2.7581   -1.4268    0.6615 C   0  0  0  0  0  0  0  0  0  0  0  0
   -4.0815   -1.5154    0.9675 N   0  0  0  0  0  0  0  0  0  0  0  0
   -4.6769   -1.2212   -0.2029 C   0  0  0  0  0  0  0  0  0  0  0  0
   -3.7529   -0.9673   -1.1580 C   0  0  0  0  0  0  0  0  0  0  0  0
   -4.0917   -0.5941   -2.4187 N   0  0  0  0  0  0  0  0  0  0  0  0
   -5.4231   -0.4947   -2.7262 C   0  0  0  0  0  0  0  0  0  0  0  0
   -5.7848   -0.1485   -3.9197 N   0  0  0  0  0  0  0  0  0  0  0  0
   -6.3746   -0.7578   -1.7709 N   0  0  0  0  0  0  0  0  0  0  0  0
   -6.0305   -1.1196   -0.5002 C   0  0  0  0  0  0  0  0  0  0  0  0
   -7.0159   -1.3692    0.4513 O   0  0  0  0  0  0  0  0  0  0  0  0
   -0.9057    0.6664   -1.1883 C   0  0  2  0  0  0  0  0  0  0  0  0
   -0.4482    1.1666   -2.4243 O   0  0  0  0  0  0  0  0  0  0  0  0
    0.1600    0.7225   -0.1158 C   0  0  2  0  0  0  0  0  0  0  0  0
    1.1404    1.7080   -0.3826 O   0  0  0  0  0  0  0  0  0  0  0  0
    0.7211    3.1623    0.4066 P   0  0  0  0  0  5  0  0  0  0  0  0
    1.8702    4.3441    0.0259 O   0  0  0  0  0  0  0  0  0  0  0  0
    0.7109    2.9229    2.0824 O   0  0  0  0  0  0  0  0  0  0  0  0
   -0.6432    3.6319   -0.0481 O   0  0  0  0  0  0  0  0  0  0  0  0
    1.5878   -0.6681   -0.9705 H   0  0  0  0  0  0  0  0  0  0  0  0
    0.5302   -1.2477    1.8617 H   0  0  0  0  0  0  0  0  0  0  0  0
    1.7919   -2.1617    1.0202 H   0  0  0  0  0  0  0  0  0  0  0  0
    3.9581   -1.9809    3.0017 H   0  0  0  0  0  0  0  0  0  0  0  0
    7.2517    1.6765    2.9686 H   0  0  0  0  0  0  0  0  0  0  0  0
    6.7233   -1.5969    0.3493 H   0  0  0  0  0  0  0  0  0  0  0  0
   -1.2805   -1.1552   -2.3394 H   0  0  0  0  0  0  0  0  0  0  0  0
   -1.9748   -1.5811    1.3918 H   0  0  0  0  0  0  0  0  0  0  0  0
   -3.3602   -0.3853   -3.1347 H   0  0  0  0  0  0  0  0  0  0  0  0
   -6.7927   -0.0635   -4.1815 H   0  0  0  0  0  0  0  0  0  0  0  0
   -6.7804   -1.6378    1.3994 H   0  0  0  0  0  0  0  0  0  0  0  0
   -1.7922    1.2625   -0.8783 H   0  0  0  0  0  0  0  0  0  0  0  0
    0.3328    0.6235   -2.7101 H   0  0  0  0  0  0  0  0  0  0  0  0
   -0.3295    0.8291    0.8836 H   0  0  0  0  0  0  0  0  0  0  0  0
    1.8929    4.3639   -0.9641 H   0  0  0  0  0  0  0  0  0  0  0  0
    0.5287    3.8183    2.4645 H   0  0  0  0  0  0  0  0  0  0  0  0
  1  2  1  0
  2  3  1  0
  3  4  1  0
  4  5  1  0
  4  6  2  0
  4  7  1  0
  7  8  1  0
  8  9  1  0
  8 10  1  0
  8 11  2  0
  1 12  1  0
 12 13  1  0
 13 14  1  0
 14 15  1  0
 15 16  2  0
 16 17  1  0
 17 18  2  0
 18 19  1  0
 19 20  1  0
 20 21  2  3
 20 22  1  0
 22 23  2  0
 23 24  1  0
 13 25  1  0
 25 26  1  0
 25 27  1  0
 27 28  1  0
 28 29  1  0
 29 30  1  0
 29 31  1  0
 29 32  2  0
 27  1  1  0
 18 14  1  0
 23 17  1  0
  1 33  1  6
  2 34  1  0
  2 35  1  0
  5 36  1  0
  9 37  1  0
 10 38  1  0
 13 39  1  6
 15 40  1  0
 19 41  1  0
 21 42  1  0
 24 43  1  0
 25 44  1  1
 26 45  1  0
 27 46  1  1
 30 47  1  0
 31 48  1  0
M  END
$$$$
