
     RDKit          3D

 71 75  0  0  0  0  0  0  0  0999 V2000
  -10.8423    1.5682   -0.7760 N   0  0  0  0  0  0  0  0  0  0  0  0
  -10.3901    0.3239   -1.3147 C   0  0  0  0  0  0  0  0  0  0  0  0
  -11.1796   -0.3627   -2.0179 O   0  0  0  0  0  0  0  0  0  0  0  0
   -9.0167   -0.1581   -1.0546 C   0  0  0  0  0  0  0  0  0  0  0  0
   -8.1704    0.5933   -0.2967 N   0  0  0  0  0  0  0  0  0  0  0  0
   -6.8934    0.2071   -0.0246 C   0  0  0  0  0  0  0  0  0  0  0  0
   -6.4243   -1.0194   -0.5197 C   0  0  0  0  0  0  0  0  0  0  0  0
   -7.2675   -1.8099   -1.3001 C   0  0  0  0  0  0  0  0  0  0  0  0
   -8.5677   -1.3834   -1.5736 C   0  0  0  0  0  0  0  0  0  0  0  0
   -6.0332    1.0777    0.8531 C   0  0  2  0  0  0  0  0  0  0  0  0
   -4.7064    1.1113    0.3717 O   0  0  0  0  0  0  0  0  0  0  0  0
   -3.8318    1.0188    1.4798 C   0  0  2  0  0  0  0  0  0  0  0  0
   -2.9746   -0.2453    1.3424 C   0  0  0  0  0  0  0  0  0  0  0  0
   -2.2926   -0.2077    0.1107 O   0  0  0  0  0  0  0  0  0  0  0  0
   -1.3669   -1.6338   -0.0463 P   0  0  0  0  0  5  0  0  0  0  0  0
   -0.2350   -1.7593    1.2103 O   0  0  0  0  0  0  0  0  0  0  0  0
   -2.2839   -2.8351    0.0119 O   0  0  0  0  0  0  0  0  0  0  0  0
   -0.5904   -1.6454   -1.5612 O   0  0  0  0  0  0  0  0  0  0  0  0
    0.5706   -0.4007   -1.5679 P   0  0  0  0  0  5  0  0  0  0  0  0
   -0.1337    1.0826   -1.1454 O   0  0  0  0  0  0  0  0  0  0  0  0
    1.1227   -0.2870   -2.9711 O   0  0  0  0  0  0  0  0  0  0  0  0
    1.8344   -0.7912   -0.4850 O   0  0  0  0  0  0  0  0  0  0  0  0
    2.8745    0.1602   -0.5854 C   0  0  0  0  0  0  0  0  0  0  0  0
    4.0399   -0.3947   -1.4178 C   0  0  1  0  0  0  0  0  0  0  0  0
    5.0562    0.5799   -1.5070 O   0  0  0  0  0  0  0  0  0  0  0  0
    6.3052   -0.0783   -1.4356 C   0  0  2  0  0  0  0  0  0  0  0  0
    6.0821   -1.5831   -1.2488 C   0  0  2  0  0  0  0  0  0  0  0  0
    6.3234   -2.2880   -2.4458 O   0  0  0  0  0  0  0  0  0  0  0  0
    4.6374   -1.6651   -0.8169 C   0  0  2  0  0  0  0  0  0  0  0  0
    4.0150   -2.8212   -1.3182 O   0  0  0  0  0  0  0  0  0  0  0  0
    7.0833    0.4656   -0.3199 N   0  0  0  0  0  0  0  0  0  0  0  0
    6.6416    0.8239    0.9148 C   0  0  0  0  0  0  0  0  0  0  0  0
    7.6428    1.1946    1.7604 N   0  0  0  0  0  0  0  0  0  0  0  0
    8.7441    1.0415    1.0012 C   0  0  0  0  0  0  0  0  0  0  0  0
    8.4122    0.5995   -0.2331 C   0  0  0  0  0  0  0  0  0  0  0  0
    9.3365    0.3276   -1.1861 N   0  0  0  0  0  0  0  0  0  0  0  0
   10.6534    0.5241   -0.8749 C   0  0  0  0  0  0  0  0  0  0  0  0
   11.0150    0.9763    0.3691 N   0  0  0  0  0  0  0  0  0  0  0  0
   10.0799    1.2422    1.3299 C   0  0  0  0  0  0  0  0  0  0  0  0
   10.4760    1.7028    2.6219 N   0  0  0  0  0  0  0  0  0  0  0  0
   -4.6565    1.0039    2.7749 C   0  0  1  0  0  0  0  0  0  0  0  0
   -4.6732    2.2754    3.3843 O   0  0  0  0  0  0  0  0  0  0  0  0
   -6.0251    0.5842    2.2961 C   0  0  1  0  0  0  0  0  0  0  0  0
   -7.0467    1.1762    3.0563 O   0  0  0  0  0  0  0  0  0  0  0  0
  -11.8143    1.8984   -0.9668 H   0  0  0  0  0  0  0  0  0  0  0  0
  -10.2203    2.1654   -0.1875 H   0  0  0  0  0  0  0  0  0  0  0  0
   -5.4202   -1.3603   -0.3042 H   0  0  0  0  0  0  0  0  0  0  0  0
   -6.9144   -2.7557   -1.6904 H   0  0  0  0  0  0  0  0  0  0  0  0
   -9.2142   -2.0060   -2.1793 H   0  0  0  0  0  0  0  0  0  0  0  0
   -6.4290    2.1183    0.8200 H   0  0  0  0  0  0  0  0  0  0  0  0
   -3.1496    1.8980    1.4715 H   0  0  0  0  0  0  0  0  0  0  0  0
   -3.6426   -1.1346    1.3989 H   0  0  0  0  0  0  0  0  0  0  0  0
   -2.2521   -0.2707    2.1890 H   0  0  0  0  0  0  0  0  0  0  0  0
   -0.0084   -0.8262    1.4519 H   0  0  0  0  0  0  0  0  0  0  0  0
    0.0699    1.2016   -0.1836 H   0  0  0  0  0  0  0  0  0  0  0  0
    2.5558    1.1460   -0.9979 H   0  0  0  0  0  0  0  0  0  0  0  0
    3.2379    0.3754    0.4417 H   0  0  0  0  0  0  0  0  0  0  0  0
    3.6777   -0.6050   -2.4484 H   0  0  0  0  0  0  0  0  0  0  0  0
    6.8547    0.1155   -2.3837 H   0  0  0  0  0  0  0  0  0  0  0  0
    6.7438   -2.0030   -0.4587 H   0  0  0  0  0  0  0  0  0  0  0  0
    5.7456   -1.9022   -3.1560 H   0  0  0  0  0  0  0  0  0  0  0  0
    4.5959   -1.6404    0.2990 H   0  0  0  0  0  0  0  0  0  0  0  0
    3.2217   -2.9897   -0.7468 H   0  0  0  0  0  0  0  0  0  0  0  0
    5.6007    0.8030    1.2084 H   0  0  0  0  0  0  0  0  0  0  0  0
   11.4156    0.3195   -1.6140 H   0  0  0  0  0  0  0  0  0  0  0  0
   11.4871    1.8421    2.8416 H   0  0  0  0  0  0  0  0  0  0  0  0
    9.7670    1.9065    3.3610 H   0  0  0  0  0  0  0  0  0  0  0  0
   -4.2666    0.2708    3.5158 H   0  0  0  0  0  0  0  0  0  0  0  0
   -4.9975    2.9370    2.7181 H   0  0  0  0  0  0  0  0  0  0  0  0
   -6.0967   -0.5290    2.3447 H   0  0  0  0  0  0  0  0  0  0  0  0
   -7.8918    0.7336    2.7819 H   0  0  0  0  0  0  0  0  0  0  0  0
  1  2  1  0
  2  3  2  0
  2  4  1  0
  4  5  2  0
  5  6  1  0
  6  7  2  0
  7  8  1  0
  8  9  2  0
  6 10  1  0
 10 11  1  0
 11 12  1  0
 12 13  1  0
 13 14  1  0
 14 15  1  0
 15 16  1  0
 15 17  2  0
 15 18  1  0
 18 19  1  0
 19 20  1  0
 19 21  2  0
 19 22  1  0
 22 23  1  0
 23 24  1  0
 24 25  1  0
 25 26  1  0
 26 27  1  0
 27 28  1  0
 27 29  1  0
 29 30  1  0
 26 31  1  0
 31 32  1  0
 32 33  2  0
 33 34  1  0
 34 35  2  0
 35 36  1  0
 36 37  2  0
 37 38  1  0
 38 39  2  0
 39 40  1  0
 12 41  1  0
 41 42  1  0
 41 43  1  0
 43 44  1  0
  9  4  1  0
 43 10  1  0
 29 24  1  0
 35 31  1  0
 39 34  1  0
  1 45  1  0
  1 46  1  0
  7 47  1  0
  8 48  1  0
  9 49  1  0
 10 50  1  1
 12 51  1  1
 13 52  1  0
 13 53  1  0
 16 54  1  0
 20 55  1  0
 23 56  1  0
 23 57  1  0
 24 58  1  6
 26 59  1  6
 27 60  1  1
 28 61  1  0
 29 62  1  1
 30 63  1  0
 32 64  1  0
 37 65  1  0
 40 66  1  0
 40 67  1  0
 41 68  1  1
 42 69  1  0
 43 70  1  6
 44 71  1  0
M  END
$$$$
