
     RDKit          3D

 29 28  0  0  0  0  0  0  0  0999 V2000
   -2.9936    1.6272    0.1862 O   0  0  0  0  0  0  0  0  0  0  0  0
   -1.6298    1.3885   -0.0385 C   0  0  0  0  0  0  0  0  0  0  0  0
   -1.3444   -0.1354   -0.1833 C   0  0  0  0  0  0  0  0  0  0  0  0
   -2.2957   -0.7520   -1.2499 C   0  0  0  0  0  0  0  0  0  0  0  0
   -2.1471   -0.1192   -2.4956 O   0  0  0  0  0  0  0  0  0  0  0  0
   -1.5895   -0.8577    1.1758 C   0  0  0  0  0  0  0  0  0  0  0  0
   -2.9490   -0.8552    1.5318 O   0  0  0  0  0  0  0  0  0  0  0  0
    0.0501   -0.3717   -0.6493 N   0  0  0  0  0  0  0  0  0  0  0  0
    1.1183    0.0604    0.2694 C   0  0  0  0  0  0  0  0  0  0  0  0
    2.4848   -0.2870   -0.3252 C   0  0  0  0  0  0  0  0  0  0  0  0
    3.8050    0.1866    0.7809 S   0  0  0  0  0  6  0  0  0  0  0  0
    5.2843   -0.2076    0.0868 O   0  0  0  0  0  0  0  0  0  0  0  0
    3.7535    1.6661    1.0412 O   0  0  0  0  0  0  0  0  0  0  0  0
    3.6620   -0.5512    2.0821 O   0  0  0  0  0  0  0  0  0  0  0  0
   -3.0960    2.6123    0.2500 H   0  0  0  0  0  0  0  0  0  0  0  0
   -1.0517    1.8093    0.8131 H   0  0  0  0  0  0  0  0  0  0  0  0
   -1.3121    1.9203   -0.9635 H   0  0  0  0  0  0  0  0  0  0  0  0
   -2.1037   -1.8479   -1.3385 H   0  0  0  0  0  0  0  0  0  0  0  0
   -3.3575   -0.6417   -0.9445 H   0  0  0  0  0  0  0  0  0  0  0  0
   -1.5238   -0.6737   -3.0336 H   0  0  0  0  0  0  0  0  0  0  0  0
   -1.0420   -0.3402    1.9905 H   0  0  0  0  0  0  0  0  0  0  0  0
   -1.1944   -1.9002    1.1273 H   0  0  0  0  0  0  0  0  0  0  0  0
   -3.3230   -1.7359    1.2671 H   0  0  0  0  0  0  0  0  0  0  0  0
    0.1954    0.1369   -1.5536 H   0  0  0  0  0  0  0  0  0  0  0  0
    1.0352   -0.4687    1.2400 H   0  0  0  0  0  0  0  0  0  0  0  0
    1.0738    1.1572    0.4369 H   0  0  0  0  0  0  0  0  0  0  0  0
    2.5467   -1.3809   -0.5091 H   0  0  0  0  0  0  0  0  0  0  0  0
    2.6235    0.2442   -1.2909 H   0  0  0  0  0  0  0  0  0  0  0  0
    5.3206    0.3171   -0.7526 H   0  0  0  0  0  0  0  0  0  0  0  0
  1  2  1  0
  2  3  1  0
  3  4  1  0
  4  5  1  0
  3  6  1  0
  6  7  1  0
  3  8  1  0
  8  9  1  0
  9 10  1  0
 10 11  1  0
 11 12  1  0
 11 13  2  0
 11 14  2  0
  1 15  1  0
  2 16  1  0
  2 17  1  0
  4 18  1  0
  4 19  1  0
  5 20  1  0
  6 21  1  0
  6 22  1  0
  7 23  1  0
  8 24  1  0
  9 25  1  0
  9 26  1  0
 10 27  1  0
 10 28  1  0
 12 29  1  0
M  END
$$$$
