
     RDKit          3D

 76 80  0  0  0  0  0  0  0  0999 V2000
    1.9481    0.9129   -0.8042 C   0  0  2  0  0  0  0  0  0  0  0  0
    2.9581    0.6009   -1.9061 C   0  0  0  0  0  0  0  0  0  0  0  0
    3.6208   -0.7205   -1.4841 C   0  0  0  0  0  0  0  0  0  0  0  0
    2.9239   -1.1715   -0.1648 C   0  0  2  0  0  0  0  0  0  0  0  0
    3.6575   -0.6323    0.9495 O   0  0  0  0  0  0  0  0  0  0  0  0
    4.9420   -1.0307    1.3472 C   0  0  0  0  0  0  0  0  0  0  0  0
    5.5903   -0.3513    2.5042 C   0  0  0  0  0  0  0  0  0  0  0  0
    5.5703   -1.9255    0.7196 O   0  0  0  0  0  0  0  0  0  0  0  0
    2.7915   -2.6860    0.0291 C   0  0  0  0  0  0  0  0  0  0  0  0
    2.2804   -3.0952    1.0621 O   0  0  0  0  0  0  0  0  0  0  0  0
    3.2589   -3.6881   -0.9982 C   0  0  0  0  0  0  0  0  0  0  0  0
    3.1761   -4.9978   -0.4736 O   0  0  0  0  0  0  0  0  0  0  0  0
    3.6058   -5.9205   -1.4492 C   0  0  0  0  0  0  0  0  0  0  0  0
    1.5353   -0.4555   -0.2549 C   0  0  2  0  0  0  0  0  0  0  0  0
    0.5870   -1.2469   -1.2128 C   0  0  0  0  0  0  0  0  0  0  0  0
    0.8321   -0.2144    1.0992 C   0  0  0  0  0  0  0  0  0  0  0  0
   -0.3526    0.8044    1.0394 C   0  0  2  0  0  0  0  0  0  0  0  0
   -1.6976    0.0877    0.9294 C   0  0  0  0  0  0  0  0  0  0  0  0
   -2.4968    0.1396   -0.2288 C   0  0  0  0  0  0  0  0  0  0  0  0
   -3.7221   -0.5288   -0.2820 C   0  0  0  0  0  0  0  0  0  0  0  0
   -4.1911   -1.2692    0.8210 C   0  0  0  0  0  0  0  0  0  0  0  0
   -3.3920   -1.3138    1.9802 C   0  0  0  0  0  0  0  0  0  0  0  0
   -2.1677   -0.6438    2.0322 C   0  0  0  0  0  0  0  0  0  0  0  0
   -5.4643   -1.9646    0.7655 N   0  0  0  0  0  0  0  0  0  0  0  0
   -5.7494   -3.0739    1.6841 C   0  0  0  0  0  0  0  0  0  0  0  0
   -6.4882   -1.5709   -0.2103 C   0  0  0  0  0  0  0  0  0  0  0  0
   -0.1900    1.9745    0.0377 C   0  0  0  0  0  0  0  0  0  0  0  0
   -0.9666    3.1022    0.1420 C   0  0  0  0  0  0  0  0  0  0  0  0
   -2.0876    3.2331    1.1745 C   0  0  0  0  0  0  0  0  0  0  0  0
   -2.3410    4.6870    1.5784 C   0  0  0  0  0  0  0  0  0  0  0  0
   -2.4685    5.5543    0.3686 C   0  0  0  0  0  0  0  0  0  0  0  0
   -3.2520    6.5405    0.3740 O   0  0  0  0  0  0  0  0  0  0  0  0
   -1.6066    5.3074   -0.7914 C   0  0  0  0  0  0  0  0  0  0  0  0
   -0.8495    4.2016   -0.8756 C   0  0  0  0  0  0  0  0  0  0  0  0
    0.0748    4.0543   -2.0508 C   0  0  0  0  0  0  0  0  0  0  0  0
    1.2560    3.1743   -1.6762 C   0  0  0  0  0  0  0  0  0  0  0  0
    0.7525    1.8123   -1.1699 C   0  0  1  0  0  0  0  0  0  0  0  0
    2.5157    1.4567   -0.0094 H   0  0  0  0  0  0  0  0  0  0  0  0
    2.4435    0.4801   -2.8850 H   0  0  0  0  0  0  0  0  0  0  0  0
    3.7136    1.4125   -1.9921 H   0  0  0  0  0  0  0  0  0  0  0  0
    4.7131   -0.5759   -1.3472 H   0  0  0  0  0  0  0  0  0  0  0  0
    3.4809   -1.4486   -2.3087 H   0  0  0  0  0  0  0  0  0  0  0  0
    4.8170    0.1040    3.1580 H   0  0  0  0  0  0  0  0  0  0  0  0
    6.2678    0.4452    2.1326 H   0  0  0  0  0  0  0  0  0  0  0  0
    6.1755   -1.0848    3.0979 H   0  0  0  0  0  0  0  0  0  0  0  0
    2.6071   -3.5896   -1.8954 H   0  0  0  0  0  0  0  0  0  0  0  0
    4.3129   -3.4497   -1.2660 H   0  0  0  0  0  0  0  0  0  0  0  0
    3.5368   -6.9426   -1.0236 H   0  0  0  0  0  0  0  0  0  0  0  0
    2.9539   -5.8871   -2.3505 H   0  0  0  0  0  0  0  0  0  0  0  0
    4.6680   -5.7446   -1.7306 H   0  0  0  0  0  0  0  0  0  0  0  0
   -0.3389   -0.7017   -1.4444 H   0  0  0  0  0  0  0  0  0  0  0  0
    0.2775   -2.2071   -0.7490 H   0  0  0  0  0  0  0  0  0  0  0  0
    1.0745   -1.4775   -2.1817 H   0  0  0  0  0  0  0  0  0  0  0  0
    0.4977   -1.1849    1.5248 H   0  0  0  0  0  0  0  0  0  0  0  0
    1.5708    0.1844    1.8289 H   0  0  0  0  0  0  0  0  0  0  0  0
   -0.3223    1.2635    2.0502 H   0  0  0  0  0  0  0  0  0  0  0  0
   -2.1847    0.7018   -1.0984 H   0  0  0  0  0  0  0  0  0  0  0  0
   -4.2942   -0.4673   -1.1971 H   0  0  0  0  0  0  0  0  0  0  0  0
   -3.7121   -1.8559    2.8590 H   0  0  0  0  0  0  0  0  0  0  0  0
   -1.5819   -0.6939    2.9420 H   0  0  0  0  0  0  0  0  0  0  0  0
   -5.9124   -2.6821    2.7098 H   0  0  0  0  0  0  0  0  0  0  0  0
   -4.9003   -3.7901    1.6866 H   0  0  0  0  0  0  0  0  0  0  0  0
   -6.6578   -3.6351    1.3786 H   0  0  0  0  0  0  0  0  0  0  0  0
   -6.6340   -0.4701   -0.1815 H   0  0  0  0  0  0  0  0  0  0  0  0
   -6.1771   -1.8813   -1.2297 H   0  0  0  0  0  0  0  0  0  0  0  0
   -7.4685   -2.0428    0.0121 H   0  0  0  0  0  0  0  0  0  0  0  0
   -3.0191    2.8176    0.7331 H   0  0  0  0  0  0  0  0  0  0  0  0
   -1.8893    2.6831    2.1121 H   0  0  0  0  0  0  0  0  0  0  0  0
   -1.4925    5.0553    2.1946 H   0  0  0  0  0  0  0  0  0  0  0  0
   -3.2688    4.7441    2.1885 H   0  0  0  0  0  0  0  0  0  0  0  0
   -1.5683    6.0576   -1.5732 H   0  0  0  0  0  0  0  0  0  0  0  0
    0.4636    5.0451   -2.3753 H   0  0  0  0  0  0  0  0  0  0  0  0
   -0.4826    3.6029   -2.9004 H   0  0  0  0  0  0  0  0  0  0  0  0
    1.8645    3.6785   -0.8920 H   0  0  0  0  0  0  0  0  0  0  0  0
    1.8911    3.0419   -2.5785 H   0  0  0  0  0  0  0  0  0  0  0  0
    0.1822    1.3528   -2.0042 H   0  0  0  0  0  0  0  0  0  0  0  0
  1  2  1  0
  2  3  1  0
  3  4  1  0
  4  5  1  1
  5  6  1  0
  6  7  1  0
  6  8  2  0
  4  9  1  0
  9 10  2  0
  9 11  1  0
 11 12  1  0
 12 13  1  0
  4 14  1  0
 14 15  1  6
 14 16  1  0
 16 17  1  0
 17 18  1  0
 18 19  2  0
 19 20  1  0
 20 21  2  0
 21 22  1  0
 22 23  2  0
 21 24  1  0
 24 25  1  0
 24 26  1  0
 17 27  1  0
 27 28  2  0
 28 29  1  0
 29 30  1  0
 30 31  1  0
 31 32  2  0
 31 33  1  0
 33 34  2  0
 34 35  1  0
 35 36  1  0
 36 37  1  0
 14  1  1  0
 23 18  1  0
 37 27  1  0
 37  1  1  0
 34 28  1  0
  1 38  1  1
  2 39  1  0
  2 40  1  0
  3 41  1  0
  3 42  1  0
  7 43  1  0
  7 44  1  0
  7 45  1  0
 11 46  1  0
 11 47  1  0
 13 48  1  0
 13 49  1  0
 13 50  1  0
 15 51  1  0
 15 52  1  0
 15 53  1  0
 16 54  1  0
 16 55  1  0
 17 56  1  1
 19 57  1  0
 20 58  1  0
 22 59  1  0
 23 60  1  0
 25 61  1  0
 25 62  1  0
 25 63  1  0
 26 64  1  0
 26 65  1  0
 26 66  1  0
 29 67  1  0
 29 68  1  0
 30 69  1  0
 30 70  1  0
 33 71  1  0
 35 72  1  0
 35 73  1  0
 36 74  1  0
 36 75  1  0
 37 76  1  6
M  END
$$$$
