
     RDKit          3D

 33 34  0  0  0  0  0  0  0  0999 V2000
   -5.2802   -0.9974    1.3384 C   0  0  0  0  0  0  0  0  0  0  0  0
   -4.6478   -0.3381    0.1165 C   0  0  0  0  0  0  0  0  0  0  0  0
   -3.9926   -1.3783   -0.7946 C   0  0  0  0  0  0  0  0  0  0  0  0
   -3.3439   -0.6006   -2.3164 S   0  0  0  0  0  0  0  0  0  0  0  0
   -1.8166   -0.0215   -1.5711 C   0  0  0  0  0  0  0  0  0  0  0  0
   -0.7028   -0.8825   -1.4971 C   0  0  0  0  0  0  0  0  0  0  0  0
    0.4606   -0.3825   -0.9178 C   0  0  0  0  0  0  0  0  0  0  0  0
    0.5458    0.8913   -0.4399 C   0  0  0  0  0  0  0  0  0  0  0  0
   -0.5299    1.7730   -0.5052 C   0  0  0  0  0  0  0  0  0  0  0  0
   -1.7249    1.3053   -1.0841 C   0  0  0  0  0  0  0  0  0  0  0  0
    1.7706    1.1236    0.0655 N   0  0  0  0  0  0  0  0  0  0  0  0
    2.4029   -0.0648   -0.1335 C   0  0  0  0  0  0  0  0  0  0  0  0
    3.7627   -0.3159    0.2488 N   0  0  0  0  0  0  0  0  0  0  0  0
    4.6115    0.6496    0.8829 C   0  0  0  0  0  0  0  0  0  0  0  0
    4.1863    1.8086    1.1442 O   0  0  0  0  0  0  0  0  0  0  0  0
    5.9221    0.2904    1.2101 O   0  0  0  0  0  0  0  0  0  0  0  0
    6.8289    1.1874    1.8402 C   0  0  0  0  0  0  0  0  0  0  0  0
    1.6307   -1.0046   -0.7318 N   0  0  0  0  0  0  0  0  0  0  0  0
   -5.7424   -0.2200    1.9827 H   0  0  0  0  0  0  0  0  0  0  0  0
   -6.0692   -1.7142    1.0257 H   0  0  0  0  0  0  0  0  0  0  0  0
   -4.5082   -1.5355    1.9289 H   0  0  0  0  0  0  0  0  0  0  0  0
   -5.4341    0.2088   -0.4474 H   0  0  0  0  0  0  0  0  0  0  0  0
   -3.8879    0.3934    0.4624 H   0  0  0  0  0  0  0  0  0  0  0  0
   -3.1805   -1.9119   -0.2548 H   0  0  0  0  0  0  0  0  0  0  0  0
   -4.7520   -2.1296   -1.0993 H   0  0  0  0  0  0  0  0  0  0  0  0
   -0.7487   -1.8974   -1.8709 H   0  0  0  0  0  0  0  0  0  0  0  0
   -0.4505    2.7837   -0.1264 H   0  0  0  0  0  0  0  0  0  0  0  0
   -2.5777    1.9684   -1.1538 H   0  0  0  0  0  0  0  0  0  0  0  0
    4.1613   -1.2615    0.0537 H   0  0  0  0  0  0  0  0  0  0  0  0
    6.9913    2.0782    1.1971 H   0  0  0  0  0  0  0  0  0  0  0  0
    6.4273    1.5041    2.8261 H   0  0  0  0  0  0  0  0  0  0  0  0
    7.8002    0.6745    1.9957 H   0  0  0  0  0  0  0  0  0  0  0  0
    1.8878   -1.9839   -0.9875 H   0  0  0  0  0  0  0  0  0  0  0  0
  1  2  1  0
  2  3  1  0
  3  4  1  0
  4  5  1  0
  5  6  2  0
  6  7  1  0
  7  8  2  0
  8  9  1  0
  9 10  2  0
  8 11  1  0
 11 12  2  0
 12 13  1  0
 13 14  1  0
 14 15  2  0
 14 16  1  0
 16 17  1  0
 12 18  1  0
 10  5  1  0
 18  7  1  0
  1 19  1  0
  1 20  1  0
  1 21  1  0
  2 22  1  0
  2 23  1  0
  3 24  1  0
  3 25  1  0
  6 26  1  0
  9 27  1  0
 10 28  1  0
 13 29  1  0
 17 30  1  0
 17 31  1  0
 17 32  1  0
 18 33  1  0
M  END
$$$$
