
     RDKit          3D

 66 65  0  0  0  0  0  0  0  0999 V2000
   -3.0473   -1.0142   -2.3836 C   0  0  0  0  0  0  0  0  0  0  0  0
   -3.9213   -0.7311   -1.2330 N   0  0  0  0  0  0  0  0  0  0  0  0
   -4.6274   -1.9405   -0.7542 C   0  0  0  0  0  0  0  0  0  0  0  0
   -5.9068   -2.1782   -1.5631 C   0  0  0  0  0  0  0  0  0  0  0  0
   -6.6949   -1.0060   -1.5971 O   0  0  0  0  0  0  0  0  0  0  0  0
   -7.9618   -1.1044   -0.4517 P   0  0  1  0  0  5  0  0  0  0  0  0
   -9.1974   -2.0744   -1.0841 O   0  0  0  0  0  0  0  0  0  0  0  0
   -7.4817   -1.7069    0.8521 O   0  0  0  0  0  0  0  0  0  0  0  0
   -8.6093    0.4429   -0.1637 O   0  0  0  0  0  0  0  0  0  0  0  0
   -7.3311    1.4548    0.3258 P   0  0  0  0  0  5  0  0  0  0  0  0
   -6.5403    0.8079    1.6770 O   0  0  0  0  0  0  0  0  0  0  0  0
   -6.2284    1.6622   -0.9426 O   0  0  0  0  0  0  0  0  0  0  0  0
   -7.9041    2.8037    0.6967 O   0  0  0  0  0  0  0  0  0  0  0  0
   -3.2215    0.0001   -0.1502 C   0  0  0  0  0  0  0  0  0  0  0  0
   -2.0728   -0.7878    0.5230 C   0  0  0  0  0  0  0  0  0  0  0  0
   -0.7499   -0.6122   -0.1865 C   0  0  0  0  0  0  0  0  0  0  0  0
    0.3825   -1.2423    0.1963 C   0  0  0  0  0  0  0  0  0  0  0  0
    0.3973   -2.1890    1.3731 C   0  0  0  0  0  0  0  0  0  0  0  0
    1.6608   -0.9998   -0.5763 C   0  0  0  0  0  0  0  0  0  0  0  0
    2.2552    0.3704   -0.2321 C   0  0  0  0  0  0  0  0  0  0  0  0
    3.5473    0.6073   -0.9748 C   0  0  0  0  0  0  0  0  0  0  0  0
    4.2897    1.7256   -0.8229 C   0  0  0  0  0  0  0  0  0  0  0  0
    3.8572    2.8382    0.1023 C   0  0  0  0  0  0  0  0  0  0  0  0
    5.5901    1.8606   -1.5868 C   0  0  0  0  0  0  0  0  0  0  0  0
    6.7080    1.0199   -0.9574 C   0  0  0  0  0  0  0  0  0  0  0  0
    7.0912    1.5573    0.4026 C   0  0  0  0  0  0  0  0  0  0  0  0
    6.8205    0.9496    1.5792 C   0  0  0  0  0  0  0  0  0  0  0  0
    6.1395   -0.3962    1.6519 C   0  0  0  0  0  0  0  0  0  0  0  0
    7.2178    1.6482    2.8540 C   0  0  0  0  0  0  0  0  0  0  0  0
   -2.2976   -1.7980   -2.1413 H   0  0  0  0  0  0  0  0  0  0  0  0
   -3.6530   -1.3591   -3.2466 H   0  0  0  0  0  0  0  0  0  0  0  0
   -2.5238   -0.0897   -2.7081 H   0  0  0  0  0  0  0  0  0  0  0  0
   -4.9180   -1.8325    0.3137 H   0  0  0  0  0  0  0  0  0  0  0  0
   -3.9790   -2.8427   -0.8232 H   0  0  0  0  0  0  0  0  0  0  0  0
   -6.4369   -3.0785   -1.1758 H   0  0  0  0  0  0  0  0  0  0  0  0
   -5.6292   -2.4315   -2.6068 H   0  0  0  0  0  0  0  0  0  0  0  0
   -8.8485   -3.0001   -1.0438 H   0  0  0  0  0  0  0  0  0  0  0  0
   -5.8557    1.4817    1.9182 H   0  0  0  0  0  0  0  0  0  0  0  0
   -5.5046    2.2209   -0.5620 H   0  0  0  0  0  0  0  0  0  0  0  0
   -3.9640    0.2679    0.6322 H   0  0  0  0  0  0  0  0  0  0  0  0
   -2.8511    0.9760   -0.5348 H   0  0  0  0  0  0  0  0  0  0  0  0
   -2.3253   -1.8652    0.5931 H   0  0  0  0  0  0  0  0  0  0  0  0
   -1.9556   -0.4058    1.5601 H   0  0  0  0  0  0  0  0  0  0  0  0
   -0.7052    0.0574   -1.0414 H   0  0  0  0  0  0  0  0  0  0  0  0
    1.4180   -2.5800    1.5662 H   0  0  0  0  0  0  0  0  0  0  0  0
   -0.2713   -3.0524    1.1739 H   0  0  0  0  0  0  0  0  0  0  0  0
    0.0586   -1.6614    2.2893 H   0  0  0  0  0  0  0  0  0  0  0  0
    2.4079   -1.7888   -0.3408 H   0  0  0  0  0  0  0  0  0  0  0  0
    1.4533   -1.0617   -1.6678 H   0  0  0  0  0  0  0  0  0  0  0  0
    1.5301    1.1684   -0.5020 H   0  0  0  0  0  0  0  0  0  0  0  0
    2.4491    0.4139    0.8618 H   0  0  0  0  0  0  0  0  0  0  0  0
    3.9029   -0.1664   -1.6520 H   0  0  0  0  0  0  0  0  0  0  0  0
    3.7695    2.4547    1.1405 H   0  0  0  0  0  0  0  0  0  0  0  0
    4.5952    3.6672    0.1099 H   0  0  0  0  0  0  0  0  0  0  0  0
    2.8792    3.2477   -0.2266 H   0  0  0  0  0  0  0  0  0  0  0  0
    5.4360    1.5360   -2.6392 H   0  0  0  0  0  0  0  0  0  0  0  0
    5.9111    2.9242   -1.6314 H   0  0  0  0  0  0  0  0  0  0  0  0
    6.4110   -0.0487   -0.9303 H   0  0  0  0  0  0  0  0  0  0  0  0
    7.6037    1.0822   -1.6113 H   0  0  0  0  0  0  0  0  0  0  0  0
    7.5732    2.5320    0.4178 H   0  0  0  0  0  0  0  0  0  0  0  0
    5.1387   -0.3440    1.1774 H   0  0  0  0  0  0  0  0  0  0  0  0
    6.7577   -1.1617    1.1377 H   0  0  0  0  0  0  0  0  0  0  0  0
    5.9976   -0.7250    2.7021 H   0  0  0  0  0  0  0  0  0  0  0  0
    8.3158    1.8146    2.8646 H   0  0  0  0  0  0  0  0  0  0  0  0
    6.7010    2.6292    2.9195 H   0  0  0  0  0  0  0  0  0  0  0  0
    6.9481    1.0536    3.7514 H   0  0  0  0  0  0  0  0  0  0  0  0
  1  2  1  0
  2  3  1  0
  3  4  1  0
  4  5  1  0
  6  5  1  6
  6  7  1  0
  6  8  2  0
  6  9  1  0
  9 10  1  0
 10 11  1  0
 10 12  1  0
 10 13  2  0
  2 14  1  0
 14 15  1  0
 15 16  1  0
 16 17  2  0
 17 18  1  0
 17 19  1  0
 19 20  1  0
 20 21  1  0
 21 22  2  0
 22 23  1  0
 22 24  1  0
 24 25  1  0
 25 26  1  0
 26 27  2  3
 27 28  1  0
 27 29  1  0
  1 30  1  0
  1 31  1  0
  1 32  1  0
  3 33  1  0
  3 34  1  0
  4 35  1  0
  4 36  1  0
  7 37  1  0
 11 38  1  0
 12 39  1  0
 14 40  1  0
 14 41  1  0
 15 42  1  0
 15 43  1  0
 16 44  1  0
 18 45  1  0
 18 46  1  0
 18 47  1  0
 19 48  1  0
 19 49  1  0
 20 50  1  0
 20 51  1  0
 21 52  1  0
 23 53  1  0
 23 54  1  0
 23 55  1  0
 24 56  1  0
 24 57  1  0
 25 58  1  0
 25 59  1  0
 26 60  1  0
 28 61  1  0
 28 62  1  0
 28 63  1  0
 29 64  1  0
 29 65  1  0
 29 66  1  0
M  END
$$$$
