
     RDKit          3D

 70 74  0  0  0  0  0  0  0  0999 V2000
   -8.9007    0.1051    0.9225 C   0  0  0  0  0  0  0  0  0  0  0  0
   -8.0295   -0.0004    2.1639 C   0  0  0  0  0  0  0  0  0  0  0  0
   -6.7801   -0.5880    1.8184 O   0  0  0  0  0  0  0  0  0  0  0  0
   -5.7538   -0.7821    2.7468 C   0  0  0  0  0  0  0  0  0  0  0  0
   -5.9043   -0.4490    3.9539 O   0  0  0  0  0  0  0  0  0  0  0  0
   -4.4473   -1.3410    2.2849 C   0  0  0  0  0  0  0  0  0  0  0  0
   -3.6974   -0.3343    1.6223 O   0  0  0  0  0  0  0  0  0  0  0  0
   -4.1451    0.2089    0.4376 N   0  0  0  0  0  0  0  0  0  0  0  0
   -3.5075    1.1493   -0.1942 C   0  0  0  0  0  0  0  0  0  0  0  0
   -4.0861    1.6297   -1.4762 C   0  0  0  0  0  0  0  0  0  0  0  0
   -3.4360    2.5684   -2.2987 C   0  0  0  0  0  0  0  0  0  0  0  0
   -4.0369    2.9739   -3.4923 C   0  0  0  0  0  0  0  0  0  0  0  0
   -5.2740    2.4488   -3.8634 C   0  0  0  0  0  0  0  0  0  0  0  0
   -5.8958    1.5199   -3.0299 C   0  0  0  0  0  0  0  0  0  0  0  0
   -5.2955    1.1367   -1.8721 N   0  0  0  0  0  0  0  0  0  0  0  0
   -2.1906    1.6762    0.3485 C   0  0  0  0  0  0  0  0  0  0  0  0
   -2.2460    2.2257    1.7765 C   0  0  0  0  0  0  0  0  0  0  0  0
   -2.0850    3.1790    0.6098 C   0  0  0  0  0  0  0  0  0  0  0  0
   -0.9188    0.9395    0.0018 C   0  0  0  0  0  0  0  0  0  0  0  0
   -0.1017    1.3771   -1.0737 C   0  0  0  0  0  0  0  0  0  0  0  0
    1.0681    0.6775   -1.4201 C   0  0  0  0  0  0  0  0  0  0  0  0
    1.3861   -0.4627   -0.6813 C   0  0  0  0  0  0  0  0  0  0  0  0
    2.4423   -1.2855   -0.8006 N   0  0  0  0  0  0  0  0  0  0  0  0
    3.5813   -1.1371   -1.7067 C   0  0  0  0  0  0  0  0  0  0  0  0
    2.2731   -2.1883    0.2061 C   0  0  0  0  0  0  0  0  0  0  0  0
    3.2611   -3.2566    0.5729 C   0  0  0  0  0  0  0  0  0  0  0  0
    4.2919   -2.6979    1.4467 N   0  0  0  0  0  0  0  0  0  0  0  0
    5.5136   -2.1246    0.9530 C   0  0  0  0  0  0  0  0  0  0  0  0
    6.2493   -2.7406   -0.0728 C   0  0  0  0  0  0  0  0  0  0  0  0
    7.4309   -2.1597   -0.5420 C   0  0  0  0  0  0  0  0  0  0  0  0
    7.9064   -0.9590    0.0142 C   0  0  0  0  0  0  0  0  0  0  0  0
    7.1780   -0.3563    1.0533 C   0  0  0  0  0  0  0  0  0  0  0  0
    5.9979   -0.9392    1.5229 C   0  0  0  0  0  0  0  0  0  0  0  0
    9.1553   -0.3305   -0.4850 C   0  0  0  0  0  0  0  0  0  0  0  0
    9.2623    1.0933   -0.5634 N   0  0  0  0  0  0  0  0  0  0  0  0
   10.1679   -1.0553   -0.8480 N   0  0  0  0  0  0  0  0  0  0  0  0
    1.1505   -1.9690    0.9404 N   0  0  0  0  0  0  0  0  0  0  0  0
    0.6095   -0.8859    0.3555 C   0  0  0  0  0  0  0  0  0  0  0  0
   -0.5515   -0.2158    0.7293 C   0  0  0  0  0  0  0  0  0  0  0  0
   -8.3971    0.7348    0.1584 H   0  0  0  0  0  0  0  0  0  0  0  0
   -9.8753    0.5672    1.1863 H   0  0  0  0  0  0  0  0  0  0  0  0
   -9.0827   -0.9056    0.4997 H   0  0  0  0  0  0  0  0  0  0  0  0
   -7.8636    1.0162    2.5820 H   0  0  0  0  0  0  0  0  0  0  0  0
   -8.5429   -0.6291    2.9233 H   0  0  0  0  0  0  0  0  0  0  0  0
   -3.8639   -1.7144    3.1531 H   0  0  0  0  0  0  0  0  0  0  0  0
   -4.6264   -2.1906    1.5921 H   0  0  0  0  0  0  0  0  0  0  0  0
   -2.4819    2.9930   -2.0341 H   0  0  0  0  0  0  0  0  0  0  0  0
   -3.5430    3.6964   -4.1292 H   0  0  0  0  0  0  0  0  0  0  0  0
   -5.7460    2.7585   -4.7868 H   0  0  0  0  0  0  0  0  0  0  0  0
   -6.8559    1.1023   -3.3021 H   0  0  0  0  0  0  0  0  0  0  0  0
   -3.2508    2.2885    2.2474 H   0  0  0  0  0  0  0  0  0  0  0  0
   -1.3207    2.1207    2.3830 H   0  0  0  0  0  0  0  0  0  0  0  0
   -1.0666    3.6166    0.5346 H   0  0  0  0  0  0  0  0  0  0  0  0
   -2.9994    3.7751    0.4020 H   0  0  0  0  0  0  0  0  0  0  0  0
   -0.3589    2.2644   -1.6337 H   0  0  0  0  0  0  0  0  0  0  0  0
    1.6942    1.0227   -2.2316 H   0  0  0  0  0  0  0  0  0  0  0  0
    4.3459   -0.4817   -1.2403 H   0  0  0  0  0  0  0  0  0  0  0  0
    4.0297   -2.1233   -1.9393 H   0  0  0  0  0  0  0  0  0  0  0  0
    3.2551   -0.6897   -2.6682 H   0  0  0  0  0  0  0  0  0  0  0  0
    2.7320   -4.0673    1.1177 H   0  0  0  0  0  0  0  0  0  0  0  0
    3.6921   -3.7170   -0.3363 H   0  0  0  0  0  0  0  0  0  0  0  0
    3.9927   -2.4460    2.4165 H   0  0  0  0  0  0  0  0  0  0  0  0
    5.9237   -3.6762   -0.5058 H   0  0  0  0  0  0  0  0  0  0  0  0
    7.9627   -2.6434   -1.3514 H   0  0  0  0  0  0  0  0  0  0  0  0
    7.5291    0.5571    1.5164 H   0  0  0  0  0  0  0  0  0  0  0  0
    5.4513   -0.4581    2.3243 H   0  0  0  0  0  0  0  0  0  0  0  0
    8.4432    1.7092   -0.3649 H   0  0  0  0  0  0  0  0  0  0  0  0
   10.1542    1.5384   -0.8751 H   0  0  0  0  0  0  0  0  0  0  0  0
   10.1668   -2.0982   -0.7973 H   0  0  0  0  0  0  0  0  0  0  0  0
   -1.1395   -0.5706    1.5647 H   0  0  0  0  0  0  0  0  0  0  0  0
  1  2  1  0
  2  3  1  0
  3  4  1  0
  4  5  2  0
  4  6  1  0
  6  7  1  0
  7  8  1  0
  8  9  2  0
  9 10  1  0
 10 11  2  0
 11 12  1  0
 12 13  2  0
 13 14  1  0
 14 15  2  0
  9 16  1  0
 16 17  1  0
 17 18  1  0
 16 19  1  0
 19 20  2  0
 20 21  1  0
 21 22  2  0
 22 23  1  0
 23 24  1  0
 23 25  1  0
 25 26  1  0
 26 27  1  0
 27 28  1  0
 28 29  2  0
 29 30  1  0
 30 31  2  0
 31 32  1  0
 32 33  2  0
 31 34  1  0
 34 35  1  0
 34 36  2  3
 25 37  2  0
 37 38  1  0
 38 39  2  0
 15 10  1  0
 18 16  1  0
 39 19  1  0
 38 22  1  0
 33 28  1  0
  1 40  1  0
  1 41  1  0
  1 42  1  0
  2 43  1  0
  2 44  1  0
  6 45  1  0
  6 46  1  0
 11 47  1  0
 12 48  1  0
 13 49  1  0
 14 50  1  0
 17 51  1  0
 17 52  1  0
 18 53  1  0
 18 54  1  0
 20 55  1  0
 21 56  1  0
 24 57  1  0
 24 58  1  0
 24 59  1  0
 26 60  1  0
 26 61  1  0
 27 62  1  0
 29 63  1  0
 30 64  1  0
 32 65  1  0
 33 66  1  0
 35 67  1  0
 35 68  1  0
 36 69  1  0
 39 70  1  0
M  END
$$$$
