
     RDKit          3D

 38 39  0  0  0  0  0  0  0  0999 V2000
   -4.5422    1.7962    0.7972 C   0  0  0  0  0  0  0  0  0  0  0  0
   -3.8302    1.9247   -0.5477 C   0  0  0  0  0  0  0  0  0  0  0  0
   -2.3432    1.5904   -0.4369 C   0  0  0  0  0  0  0  0  0  0  0  0
   -2.1776    0.2214   -0.0733 O   0  0  0  0  0  0  0  0  0  0  0  0
   -0.9383   -0.4112    0.1122 C   0  0  0  0  0  0  0  0  0  0  0  0
    0.2820    0.2697   -0.0604 C   0  0  0  0  0  0  0  0  0  0  0  0
    1.5117   -0.3902    0.1218 C   0  0  0  0  0  0  0  0  0  0  0  0
    1.5004   -1.7418    0.5100 C   0  0  0  0  0  0  0  0  0  0  0  0
    0.2938   -2.4220    0.6825 C   0  0  0  0  0  0  0  0  0  0  0  0
   -0.9324   -1.7632    0.4826 C   0  0  0  0  0  0  0  0  0  0  0  0
   -2.1648   -2.4157    0.6457 O   0  0  0  0  0  0  0  0  0  0  0  0
   -2.3110   -3.7817    1.0199 C   0  0  0  0  0  0  0  0  0  0  0  0
    2.8203    0.3768   -0.0432 C   0  0  2  0  0  0  0  0  0  0  0  0
    2.9863    1.3822    1.1061 C   0  0  0  0  0  0  0  0  0  0  0  0
    2.9072    1.0911   -1.4379 C   0  0  0  0  0  0  0  0  0  0  0  0
    4.1477    0.6234   -2.0350 N   0  0  0  0  0  0  0  0  0  0  0  0
    4.6922   -0.3386   -1.1665 C   0  0  0  0  0  0  0  0  0  0  0  0
    5.7475   -0.9794   -1.4098 O   0  0  0  0  0  0  0  0  0  0  0  0
    3.9415   -0.5093   -0.0281 O   0  0  0  0  0  0  0  0  0  0  0  0
   -4.0828    2.4783    1.5440 H   0  0  0  0  0  0  0  0  0  0  0  0
   -5.6117    2.0695    0.6780 H   0  0  0  0  0  0  0  0  0  0  0  0
   -4.4843    0.7514    1.1697 H   0  0  0  0  0  0  0  0  0  0  0  0
   -4.3091    1.2447   -1.2852 H   0  0  0  0  0  0  0  0  0  0  0  0
   -3.9404    2.9676   -0.9157 H   0  0  0  0  0  0  0  0  0  0  0  0
   -1.8674    2.2466    0.3246 H   0  0  0  0  0  0  0  0  0  0  0  0
   -1.8624    1.7721   -1.4226 H   0  0  0  0  0  0  0  0  0  0  0  0
    0.2848    1.3149   -0.3383 H   0  0  0  0  0  0  0  0  0  0  0  0
    2.4225   -2.2802    0.6849 H   0  0  0  0  0  0  0  0  0  0  0  0
    0.3261   -3.4623    0.9760 H   0  0  0  0  0  0  0  0  0  0  0  0
   -3.3910   -4.0294    1.0721 H   0  0  0  0  0  0  0  0  0  0  0  0
   -1.8319   -4.4383    0.2633 H   0  0  0  0  0  0  0  0  0  0  0  0
   -1.8581   -3.9545    2.0190 H   0  0  0  0  0  0  0  0  0  0  0  0
    2.9632    0.8531    2.0830 H   0  0  0  0  0  0  0  0  0  0  0  0
    3.9608    1.9087    1.0174 H   0  0  0  0  0  0  0  0  0  0  0  0
    2.1740    2.1398    1.0907 H   0  0  0  0  0  0  0  0  0  0  0  0
    2.0652    0.8076   -2.1060 H   0  0  0  0  0  0  0  0  0  0  0  0
    2.9313    2.1987   -1.3466 H   0  0  0  0  0  0  0  0  0  0  0  0
    4.5205    0.8889   -2.9734 H   0  0  0  0  0  0  0  0  0  0  0  0
  1  2  1  0
  2  3  1  0
  3  4  1  0
  4  5  1  0
  5  6  2  0
  6  7  1  0
  7  8  2  0
  8  9  1  0
  9 10  2  0
 10 11  1  0
 11 12  1  0
  7 13  1  0
 13 14  1  1
 13 15  1  0
 15 16  1  0
 16 17  1  0
 17 18  2  0
 17 19  1  0
 10  5  1  0
 19 13  1  0
  1 20  1  0
  1 21  1  0
  1 22  1  0
  2 23  1  0
  2 24  1  0
  3 25  1  0
  3 26  1  0
  6 27  1  0
  8 28  1  0
  9 29  1  0
 12 30  1  0
 12 31  1  0
 12 32  1  0
 14 33  1  0
 14 34  1  0
 14 35  1  0
 15 36  1  0
 15 37  1  0
 16 38  1  0
M  END
$$$$
