
     RDKit          3D

 45 48  0  0  0  0  0  0  0  0999 V2000
    5.6011    2.8350    0.4412 O   0  0  0  0  0  0  0  0  0  0  0  0
    4.3653    3.4313    0.6813 C   0  0  0  0  0  0  0  0  0  0  0  0
    4.3302    4.6435    1.0258 O   0  0  0  0  0  0  0  0  0  0  0  0
    3.1129    2.6420    0.5305 C   0  0  0  0  0  0  0  0  0  0  0  0
    3.1941    1.2956    0.1472 C   0  0  0  0  0  0  0  0  0  0  0  0
    2.0756    0.5266   -0.0005 N   0  0  0  0  0  0  0  0  0  0  0  0
    2.2686   -0.8513   -0.3690 C   0  0  0  0  0  0  0  0  0  0  0  0
    2.0988   -1.8679    0.5839 C   0  0  0  0  0  0  0  0  0  0  0  0
    2.2879   -3.2057    0.2243 C   0  0  0  0  0  0  0  0  0  0  0  0
    2.6530   -3.5342   -1.0852 C   0  0  0  0  0  0  0  0  0  0  0  0
    2.8360   -4.8319   -1.4325 F   0  0  0  0  0  0  0  0  0  0  0  0
    2.8310   -2.5241   -2.0361 C   0  0  0  0  0  0  0  0  0  0  0  0
    2.6419   -1.1853   -1.6797 C   0  0  0  0  0  0  0  0  0  0  0  0
    0.8213    1.0549    0.2063 C   0  0  0  0  0  0  0  0  0  0  0  0
   -0.3480    0.2822    0.0215 C   0  0  0  0  0  0  0  0  0  0  0  0
   -1.6199    0.8273    0.2402 C   0  0  0  0  0  0  0  0  0  0  0  0
   -2.7874    0.0074    0.0528 N   0  0  0  0  0  0  0  0  0  0  0  0
   -3.8328   -0.0577    1.0772 C   0  0  0  0  0  0  0  0  0  0  0  0
   -4.3625   -1.4928    1.1829 C   0  0  0  0  0  0  0  0  0  0  0  0
   -4.7571   -2.0158   -0.1333 N   0  0  0  0  0  0  0  0  0  0  0  0
   -3.6203   -2.0080   -1.0656 C   0  0  0  0  0  0  0  0  0  0  0  0
   -3.0674   -0.5913   -1.2551 C   0  0  0  0  0  0  0  0  0  0  0  0
   -1.7370    2.1648    0.6428 C   0  0  0  0  0  0  0  0  0  0  0  0
   -2.9580    2.7246    0.8335 F   0  0  0  0  0  0  0  0  0  0  0  0
   -0.5963    2.9478    0.8184 C   0  0  0  0  0  0  0  0  0  0  0  0
    0.6866    2.4096    0.6009 C   0  0  0  0  0  0  0  0  0  0  0  0
    1.8402    3.1991    0.7630 C   0  0  0  0  0  0  0  0  0  0  0  0
    1.7303    4.4067    1.1146 O   0  0  0  0  0  0  0  0  0  0  0  0
    6.4613    3.3609    0.5400 H   0  0  0  0  0  0  0  0  0  0  0  0
    4.1682    0.8508   -0.0266 H   0  0  0  0  0  0  0  0  0  0  0  0
    1.8168   -1.6193    1.5993 H   0  0  0  0  0  0  0  0  0  0  0  0
    2.1518   -3.9868    0.9612 H   0  0  0  0  0  0  0  0  0  0  0  0
    3.1151   -2.7777   -3.0492 H   0  0  0  0  0  0  0  0  0  0  0  0
    2.7794   -0.4079   -2.4206 H   0  0  0  0  0  0  0  0  0  0  0  0
   -0.2871   -0.7527   -0.2870 H   0  0  0  0  0  0  0  0  0  0  0  0
   -3.4305    0.2512    2.0670 H   0  0  0  0  0  0  0  0  0  0  0  0
   -4.6633    0.6277    0.8017 H   0  0  0  0  0  0  0  0  0  0  0  0
   -3.5823   -2.1484    1.6290 H   0  0  0  0  0  0  0  0  0  0  0  0
   -5.2417   -1.5091    1.8623 H   0  0  0  0  0  0  0  0  0  0  0  0
   -5.5214   -1.4145   -0.5231 H   0  0  0  0  0  0  0  0  0  0  0  0
   -2.8164   -2.6763   -0.6850 H   0  0  0  0  0  0  0  0  0  0  0  0
   -3.9502   -2.4067   -2.0490 H   0  0  0  0  0  0  0  0  0  0  0  0
   -2.1500   -0.6382   -1.8808 H   0  0  0  0  0  0  0  0  0  0  0  0
   -3.8153    0.0336   -1.7893 H   0  0  0  0  0  0  0  0  0  0  0  0
   -0.7224    3.9809    1.1188 H   0  0  0  0  0  0  0  0  0  0  0  0
  1  2  1  0
  2  3  2  0
  2  4  1  0
  4  5  2  0
  5  6  1  0
  6  7  1  0
  7  8  2  0
  8  9  1  0
  9 10  2  0
 10 11  1  0
 10 12  1  0
 12 13  2  0
  6 14  1  0
 14 15  2  0
 15 16  1  0
 16 17  1  0
 17 18  1  0
 18 19  1  0
 19 20  1  0
 20 21  1  0
 21 22  1  0
 16 23  2  0
 23 24  1  0
 23 25  1  0
 25 26  2  0
 26 27  1  0
 27 28  2  0
 27  4  1  0
 13  7  1  0
 26 14  1  0
 22 17  1  0
  1 29  1  0
  5 30  1  0
  8 31  1  0
  9 32  1  0
 12 33  1  0
 13 34  1  0
 15 35  1  0
 18 36  1  0
 18 37  1  0
 19 38  1  0
 19 39  1  0
 20 40  1  0
 21 41  1  0
 21 42  1  0
 22 43  1  0
 22 44  1  0
 25 45  1  0
M  END
$$$$
