
     RDKit          3D

 22 21  0  0  0  0  0  0  0  0999 V2000
   -1.8104   -1.1187   -1.1218 N   0  0  0  0  0  0  0  0  0  0  0  0
   -2.1382   -0.4461    0.1018 C   0  0  0  0  0  0  0  0  0  0  0  0
   -3.2944   -0.8621    0.8343 N   0  0  0  0  0  0  0  0  0  0  0  0
   -3.6329   -0.2589    1.9994 O   0  0  0  0  0  0  0  0  0  0  0  0
   -1.4181    0.5399    0.5590 N   0  0  0  0  0  0  0  0  0  0  0  0
   -0.2029    1.0863   -0.0432 C   0  0  0  0  0  0  0  0  0  0  0  0
    0.9984    0.1777    0.2418 C   0  0  0  0  0  0  0  0  0  0  0  0
    2.2790    0.7446   -0.3844 C   0  0  0  0  0  0  0  0  0  0  0  0
    3.4248   -0.1205   -0.1055 N   0  0  0  0  0  4  0  0  0  0  0  0
   -1.0035   -0.8417   -1.7210 H   0  0  0  0  0  0  0  0  0  0  0  0
   -2.4031   -1.9122   -1.4515 H   0  0  0  0  0  0  0  0  0  0  0  0
   -3.8766   -1.6557    0.4848 H   0  0  0  0  0  0  0  0  0  0  0  0
   -4.2526    0.4692    1.7377 H   0  0  0  0  0  0  0  0  0  0  0  0
   -0.3443    1.2455   -1.1339 H   0  0  0  0  0  0  0  0  0  0  0  0
   -0.0115    2.0814    0.4121 H   0  0  0  0  0  0  0  0  0  0  0  0
    0.8111   -0.8382   -0.1660 H   0  0  0  0  0  0  0  0  0  0  0  0
    1.1331    0.0899    1.3421 H   0  0  0  0  0  0  0  0  0  0  0  0
    2.4770    1.7599    0.0262 H   0  0  0  0  0  0  0  0  0  0  0  0
    2.1461    0.8343   -1.4857 H   0  0  0  0  0  0  0  0  0  0  0  0
    3.2635   -1.0718   -0.5094 H   0  0  0  0  0  0  0  0  0  0  0  0
    4.2797    0.2924   -0.5436 H   0  0  0  0  0  0  0  0  0  0  0  0
    3.5759   -0.1950    0.9268 H   0  0  0  0  0  0  0  0  0  0  0  0
  1  2  1  0
  2  3  1  0
  3  4  1  0
  2  5  2  0
  5  6  1  0
  6  7  1  0
  7  8  1  0
  8  9  1  0
  1 10  1  0
  1 11  1  0
  3 12  1  0
  4 13  1  0
  6 14  1  0
  6 15  1  0
  7 16  1  0
  7 17  1  0
  8 18  1  0
  8 19  1  0
  9 20  1  0
  9 21  1  0
  9 22  1  0
M  CHG  1   9   1
M  END
$$$$
