
     RDKit          3D

 61 64  0  0  0  0  0  0  0  0999 V2000
   -6.2202   -5.4379    0.1674 O   0  0  0  0  0  0  0  0  0  0  0  0
   -5.4240   -4.8806   -0.8294 C   0  0  0  0  0  0  0  0  0  0  0  0
   -5.3342   -5.4602   -1.9455 O   0  0  0  0  0  0  0  0  0  0  0  0
   -4.6396   -3.6522   -0.5656 C   0  0  0  0  0  0  0  0  0  0  0  0
   -5.1002   -2.6165    0.2919 C   0  0  0  0  0  0  0  0  0  0  0  0
   -4.2390   -1.5478    0.5990 C   0  0  0  0  0  0  0  0  0  0  0  0
   -2.9557   -1.4729    0.0522 C   0  0  0  0  0  0  0  0  0  0  0  0
   -2.1504   -0.3707    0.3754 O   0  0  0  0  0  0  0  0  0  0  0  0
   -0.7469   -0.3675    0.4062 C   0  0  0  0  0  0  0  0  0  0  0  0
   -0.0596    0.8194    0.0965 C   0  0  0  0  0  0  0  0  0  0  0  0
   -0.8004    1.9840   -0.3068 N   0  0  0  0  0  0  0  0  0  0  0  0
   -0.4878    3.3188    0.1337 C   0  0  0  0  0  0  0  0  0  0  0  0
    0.4739    3.5113    0.9271 O   0  0  0  0  0  0  0  0  0  0  0  0
   -1.2842    4.4824   -0.3237 C   0  0  0  0  0  0  0  0  0  0  0  0
   -2.6539    4.3578   -0.6248 C   0  0  0  0  0  0  0  0  0  0  0  0
   -3.4018    5.4698   -1.0541 C   0  0  0  0  0  0  0  0  0  0  0  0
   -2.7633    6.7170   -1.1718 C   0  0  0  0  0  0  0  0  0  0  0  0
   -1.4095    6.8501   -0.8599 C   0  0  0  0  0  0  0  0  0  0  0  0
   -0.6742    5.7430   -0.4341 C   0  0  0  0  0  0  0  0  0  0  0  0
   -4.8019    5.3316   -1.3606 N   0  0  0  0  0  4  0  0  0  0  0  0
   -5.4249    4.1091   -1.2534 O   0  0  0  0  0  1  0  0  0  0  0  0
   -5.4728    6.3170   -1.7320 O   0  0  0  0  0  0  0  0  0  0  0  0
    1.3462    0.8315    0.1170 C   0  0  0  0  0  0  0  0  0  0  0  0
    2.0693   -0.3164    0.4699 C   0  0  0  0  0  0  0  0  0  0  0  0
    3.5055   -0.2595    0.5074 N   0  0  0  0  0  0  0  0  0  0  0  0
    4.3618   -1.3470    0.1085 C   0  0  0  0  0  0  0  0  0  0  0  0
    3.8608   -2.3930   -0.3877 O   0  0  0  0  0  0  0  0  0  0  0  0
    5.8346   -1.2614    0.2609 C   0  0  0  0  0  0  0  0  0  0  0  0
    6.5829   -2.4343    0.4724 C   0  0  0  0  0  0  0  0  0  0  0  0
    7.9825   -2.3836    0.6164 C   0  0  0  0  0  0  0  0  0  0  0  0
    8.6301   -1.1398    0.5368 C   0  0  0  0  0  0  0  0  0  0  0  0
    7.8962    0.0260    0.3126 C   0  0  0  0  0  0  0  0  0  0  0  0
    6.5084   -0.0307    0.1717 C   0  0  0  0  0  0  0  0  0  0  0  0
    8.7425   -3.5854    0.8421 N   0  0  0  0  0  4  0  0  0  0  0  0
   10.1103   -3.5314    0.9839 O   0  0  0  0  0  1  0  0  0  0  0  0
    8.1745   -4.6951    0.9125 O   0  0  0  0  0  0  0  0  0  0  0  0
    1.3727   -1.4776    0.8397 C   0  0  0  0  0  0  0  0  0  0  0  0
   -0.0224   -1.5048    0.8018 C   0  0  0  0  0  0  0  0  0  0  0  0
   -2.5310   -2.4646   -0.8426 C   0  0  0  0  0  0  0  0  0  0  0  0
   -3.3617   -3.5440   -1.1422 C   0  0  0  0  0  0  0  0  0  0  0  0
   -6.4800   -2.5697    0.8283 C   0  0  0  0  0  0  0  0  0  0  0  0
   -6.7259   -1.9708    2.0610 O   0  0  0  0  0  0  0  0  0  0  0  0
   -7.4464   -3.0197    0.1559 O   0  0  0  0  0  0  0  0  0  0  0  0
   -6.7454   -6.2877   -0.0006 H   0  0  0  0  0  0  0  0  0  0  0  0
   -4.5719   -0.7486    1.2507 H   0  0  0  0  0  0  0  0  0  0  0  0
   -1.6343    1.8305   -0.9153 H   0  0  0  0  0  0  0  0  0  0  0  0
   -3.1504    3.4060   -0.4979 H   0  0  0  0  0  0  0  0  0  0  0  0
   -3.3121    7.5906   -1.4997 H   0  0  0  0  0  0  0  0  0  0  0  0
   -0.9279    7.8154   -0.9492 H   0  0  0  0  0  0  0  0  0  0  0  0
    0.3765    5.8692   -0.2030 H   0  0  0  0  0  0  0  0  0  0  0  0
    1.8855    1.7230   -0.1765 H   0  0  0  0  0  0  0  0  0  0  0  0
    3.9337    0.6472    0.7963 H   0  0  0  0  0  0  0  0  0  0  0  0
    6.0721   -3.3871    0.5379 H   0  0  0  0  0  0  0  0  0  0  0  0
    9.7049   -1.0681    0.6417 H   0  0  0  0  0  0  0  0  0  0  0  0
    8.4066    0.9779    0.2397 H   0  0  0  0  0  0  0  0  0  0  0  0
    5.9759    0.8869   -0.0363 H   0  0  0  0  0  0  0  0  0  0  0  0
    1.9027   -2.3560    1.1828 H   0  0  0  0  0  0  0  0  0  0  0  0
   -0.5382   -2.4056    1.1077 H   0  0  0  0  0  0  0  0  0  0  0  0
   -1.5597   -2.4020   -1.3154 H   0  0  0  0  0  0  0  0  0  0  0  0
   -2.9920   -4.3131   -1.8096 H   0  0  0  0  0  0  0  0  0  0  0  0
   -7.6665   -1.9124    2.4325 H   0  0  0  0  0  0  0  0  0  0  0  0
  1  2  1  0
  2  3  2  0
  2  4  1  0
  4  5  2  0
  5  6  1  0
  6  7  2  0
  7  8  1  0
  8  9  1  0
  9 10  1  0
 10 11  1  0
 11 12  1  0
 12 13  2  0
 12 14  1  0
 14 15  2  0
 15 16  1  0
 16 17  2  0
 17 18  1  0
 18 19  2  0
 16 20  1  0
 20 21  1  0
 20 22  2  0
 10 23  2  0
 23 24  1  0
 24 25  1  0
 25 26  1  0
 26 27  2  0
 26 28  1  0
 28 29  2  0
 29 30  1  0
 30 31  2  0
 31 32  1  0
 32 33  2  0
 30 34  1  0
 34 35  1  0
 34 36  2  0
 24 37  2  0
 37 38  1  0
  7 39  1  0
 39 40  2  0
  5 41  1  0
 41 42  1  0
 41 43  2  0
 40  4  1  0
 38  9  2  0
 19 14  1  0
 33 28  1  0
  1 44  1  0
  6 45  1  0
 11 46  1  0
 15 47  1  0
 17 48  1  0
 18 49  1  0
 19 50  1  0
 23 51  1  0
 25 52  1  0
 29 53  1  0
 31 54  1  0
 32 55  1  0
 33 56  1  0
 37 57  1  0
 38 58  1  0
 39 59  1  0
 40 60  1  0
 42 61  1  0
M  CHG  4  20   1  21  -1  34   1  35  -1
M  END
$$$$
