
     RDKit          3D

 56 63  0  0  0  0  0  0  0  0999 V2000
    1.0339   -1.8277    0.7436 C   0  0  1  0  0  0  0  0  0  0  0  0
    1.6962   -1.6533   -0.6268 C   0  0  0  0  0  0  0  0  0  0  0  0
    2.4816   -0.3532   -0.4916 C   0  0  2  0  0  0  0  0  0  0  0  0
    2.3524    0.4384   -1.6498 O   0  0  0  0  0  0  0  0  0  0  0  0
    3.9497   -0.6442   -0.2180 C   0  0  0  0  0  0  0  0  0  0  0  0
    4.2759   -1.5062    0.6456 O   0  0  0  0  0  0  0  0  0  0  0  0
    4.9354    0.0854   -0.8908 O   0  0  0  0  0  0  0  0  0  0  0  0
    6.3248   -0.1041   -0.6538 C   0  0  0  0  0  0  0  0  0  0  0  0
    1.7724    0.3156    0.7137 C   0  0  2  0  0  0  0  0  0  0  0  0
    2.6935    1.2280    1.5629 C   0  0  0  0  0  0  0  0  0  0  0  0
    1.3905   -0.7424    1.5649 O   0  0  0  0  0  0  0  0  0  0  0  0
    0.5501    1.0576    0.2689 N   0  0  0  0  0  0  0  0  0  0  0  0
    0.4282    2.3440   -0.1860 C   0  0  0  0  0  0  0  0  0  0  0  0
   -0.8993    2.6797   -0.4153 C   0  0  0  0  0  0  0  0  0  0  0  0
   -1.2797    3.9336   -0.8967 C   0  0  0  0  0  0  0  0  0  0  0  0
   -0.2712    4.8687   -1.1687 C   0  0  0  0  0  0  0  0  0  0  0  0
    1.0821    4.5287   -0.9877 C   0  0  0  0  0  0  0  0  0  0  0  0
    1.4437    3.2582   -0.5088 C   0  0  0  0  0  0  0  0  0  0  0  0
   -1.6393    1.5505   -0.1584 C   0  0  0  0  0  0  0  0  0  0  0  0
   -3.0045    1.2491   -0.3124 C   0  0  0  0  0  0  0  0  0  0  0  0
   -4.1268    2.1471   -0.7456 C   0  0  0  0  0  0  0  0  0  0  0  0
   -5.2879    1.2612   -0.7449 N   0  0  0  0  0  0  0  0  0  0  0  0
   -4.8757   -0.0434   -0.3625 C   0  0  0  0  0  0  0  0  0  0  0  0
   -5.6730   -1.0060   -0.2387 O   0  0  0  0  0  0  0  0  0  0  0  0
   -3.4491   -0.0580   -0.1016 C   0  0  0  0  0  0  0  0  0  0  0  0
   -2.5214   -1.0711    0.2321 C   0  0  0  0  0  0  0  0  0  0  0  0
   -2.5797   -2.4564    0.3599 C   0  0  0  0  0  0  0  0  0  0  0  0
   -3.6273   -3.3757    0.2492 C   0  0  0  0  0  0  0  0  0  0  0  0
   -3.3315   -4.7425    0.3857 C   0  0  0  0  0  0  0  0  0  0  0  0
   -2.0095   -5.1717    0.6134 C   0  0  0  0  0  0  0  0  0  0  0  0
   -0.9645   -4.2397    0.7094 C   0  0  0  0  0  0  0  0  0  0  0  0
   -1.2766   -2.8823    0.5845 C   0  0  0  0  0  0  0  0  0  0  0  0
   -0.4203   -1.8353    0.6169 N   0  0  0  0  0  0  0  0  0  0  0  0
   -1.1768   -0.7422    0.4012 C   0  0  0  0  0  0  0  0  0  0  0  0
   -0.7280    0.5780    0.2257 C   0  0  0  0  0  0  0  0  0  0  0  0
    1.3913   -2.7610    1.2263 H   0  0  0  0  0  0  0  0  0  0  0  0
    0.9293   -1.5650   -1.4295 H   0  0  0  0  0  0  0  0  0  0  0  0
    2.3417   -2.5252   -0.8751 H   0  0  0  0  0  0  0  0  0  0  0  0
    2.6917   -0.0945   -2.4167 H   0  0  0  0  0  0  0  0  0  0  0  0
    6.6119   -1.1502   -0.8921 H   0  0  0  0  0  0  0  0  0  0  0  0
    6.9026    0.5846   -1.3035 H   0  0  0  0  0  0  0  0  0  0  0  0
    6.5625    0.1183    0.4081 H   0  0  0  0  0  0  0  0  0  0  0  0
    3.2650    0.6214    2.2985 H   0  0  0  0  0  0  0  0  0  0  0  0
    2.0945    1.9656    2.1380 H   0  0  0  0  0  0  0  0  0  0  0  0
    3.4516    1.7555    0.9541 H   0  0  0  0  0  0  0  0  0  0  0  0
   -2.3148    4.1883   -1.0695 H   0  0  0  0  0  0  0  0  0  0  0  0
   -0.5340    5.8487   -1.5452 H   0  0  0  0  0  0  0  0  0  0  0  0
    1.8525    5.2463   -1.2389 H   0  0  0  0  0  0  0  0  0  0  0  0
    2.4872    3.0081   -0.4600 H   0  0  0  0  0  0  0  0  0  0  0  0
   -3.9480    2.5342   -1.7707 H   0  0  0  0  0  0  0  0  0  0  0  0
   -4.2739    2.9725   -0.0177 H   0  0  0  0  0  0  0  0  0  0  0  0
   -6.2648    1.5428   -0.9827 H   0  0  0  0  0  0  0  0  0  0  0  0
   -4.6413   -3.0779    0.0607 H   0  0  0  0  0  0  0  0  0  0  0  0
   -4.1259   -5.4735    0.3070 H   0  0  0  0  0  0  0  0  0  0  0  0
   -1.7968   -6.2286    0.7084 H   0  0  0  0  0  0  0  0  0  0  0  0
    0.0496   -4.5785    0.8687 H   0  0  0  0  0  0  0  0  0  0  0  0
  1  2  1  0
  2  3  1  0
  3  4  1  6
  3  5  1  0
  5  6  2  0
  5  7  1  0
  7  8  1  0
  3  9  1  0
  9 10  1  1
  9 11  1  0
  9 12  1  0
 12 13  1  0
 13 14  2  0
 14 15  1  0
 15 16  2  0
 16 17  1  0
 17 18  2  0
 14 19  1  0
 19 20  2  0
 20 21  1  0
 21 22  1  0
 22 23  1  0
 23 24  2  0
 23 25  1  0
 25 26  2  0
 26 27  1  0
 27 28  2  0
 28 29  1  0
 29 30  2  0
 30 31  1  0
 31 32  2  0
 32 33  1  0
 33 34  1  0
 34 35  2  0
 11  1  1  0
 35 12  1  0
 33  1  1  0
 18 13  1  0
 35 19  1  0
 25 20  1  0
 34 26  1  0
 32 27  1  0
  1 36  1  1
  2 37  1  0
  2 38  1  0
  4 39  1  0
  8 40  1  0
  8 41  1  0
  8 42  1  0
 10 43  1  0
 10 44  1  0
 10 45  1  0
 15 46  1  0
 16 47  1  0
 17 48  1  0
 18 49  1  0
 21 50  1  0
 21 51  1  0
 22 52  1  0
 28 53  1  0
 29 54  1  0
 30 55  1  0
 31 56  1  0
M  END
$$$$
