
     RDKit          3D

 37 40  0  0  0  0  0  0  0  0999 V2000
    2.9927    0.3203   -1.2712 N   0  0  0  0  0  0  0  0  0  0  0  0
    3.6837    0.0544   -0.0389 C   0  0  0  0  0  0  0  0  0  0  0  0
    3.1496    0.4496    1.2020 C   0  0  0  0  0  0  0  0  0  0  0  0
    3.8538    0.2000    2.3842 C   0  0  0  0  0  0  0  0  0  0  0  0
    5.0997   -0.4306    2.3381 C   0  0  0  0  0  0  0  0  0  0  0  0
    5.6480   -0.8045    1.1086 C   0  0  0  0  0  0  0  0  0  0  0  0
    4.9472   -0.5562   -0.0757 C   0  0  0  0  0  0  0  0  0  0  0  0
    1.5676    0.2616   -1.4249 C   0  0  0  0  0  0  0  0  0  0  0  0
    0.9968    0.7508   -2.5649 N   0  0  0  0  0  0  0  0  0  0  0  0
   -0.3459    0.6539   -2.7005 C   0  0  0  0  0  0  0  0  0  0  0  0
   -1.1219    1.0301   -3.7686 C   0  0  0  0  0  0  0  0  0  0  0  0
   -2.4003    0.6335   -3.3825 C   0  0  0  0  0  0  0  0  0  0  0  0
   -2.3662    0.0555   -2.1570 N   0  0  0  0  0  0  0  0  0  0  0  0
   -1.1058    0.0920   -1.7604 N   0  0  0  0  0  0  0  0  0  0  0  0
   -0.5657   -0.4016   -0.6174 C   0  0  0  0  0  0  0  0  0  0  0  0
   -1.3647   -1.0403    0.3883 N   0  0  0  0  0  0  0  0  0  0  0  0
   -2.6551   -0.5696    0.8116 C   0  0  0  0  0  0  0  0  0  0  0  0
   -3.5675   -1.4736    1.3772 C   0  0  0  0  0  0  0  0  0  0  0  0
   -4.8190   -1.0324    1.8185 C   0  0  0  0  0  0  0  0  0  0  0  0
   -5.1633    0.3176    1.7116 C   0  0  0  0  0  0  0  0  0  0  0  0
   -4.2537    1.2296    1.1700 C   0  0  0  0  0  0  0  0  0  0  0  0
   -3.0013    0.7923    0.7280 C   0  0  0  0  0  0  0  0  0  0  0  0
    0.7858   -0.3297   -0.4675 N   0  0  0  0  0  0  0  0  0  0  0  0
    3.5642    0.4907   -2.1297 H   0  0  0  0  0  0  0  0  0  0  0  0
    2.2039    0.9720    1.2574 H   0  0  0  0  0  0  0  0  0  0  0  0
    3.4374    0.5042    3.3358 H   0  0  0  0  0  0  0  0  0  0  0  0
    5.6441   -0.6214    3.2540 H   0  0  0  0  0  0  0  0  0  0  0  0
    6.6173   -1.2849    1.0728 H   0  0  0  0  0  0  0  0  0  0  0  0
    5.3832   -0.8486   -1.0228 H   0  0  0  0  0  0  0  0  0  0  0  0
   -0.8142    1.4993   -4.6935 H   0  0  0  0  0  0  0  0  0  0  0  0
   -3.3007    0.7506   -3.9700 H   0  0  0  0  0  0  0  0  0  0  0  0
   -0.9485   -1.8582    0.8884 H   0  0  0  0  0  0  0  0  0  0  0  0
   -3.3108   -2.5217    1.4672 H   0  0  0  0  0  0  0  0  0  0  0  0
   -5.5211   -1.7370    2.2452 H   0  0  0  0  0  0  0  0  0  0  0  0
   -6.1317    0.6580    2.0546 H   0  0  0  0  0  0  0  0  0  0  0  0
   -4.5165    2.2772    1.0987 H   0  0  0  0  0  0  0  0  0  0  0  0
   -2.3012    1.5171    0.3330 H   0  0  0  0  0  0  0  0  0  0  0  0
  1  2  1  0
  2  3  2  0
  3  4  1  0
  4  5  2  0
  5  6  1  0
  6  7  2  0
  1  8  1  0
  8  9  2  0
  9 10  1  0
 10 11  2  0
 11 12  1  0
 12 13  2  0
 13 14  1  0
 14 15  1  0
 15 16  1  0
 16 17  1  0
 17 18  2  0
 18 19  1  0
 19 20  2  0
 20 21  1  0
 21 22  2  0
 15 23  2  0
  7  2  1  0
 23  8  1  0
 14 10  1  0
 22 17  1  0
  1 24  1  0
  3 25  1  0
  4 26  1  0
  5 27  1  0
  6 28  1  0
  7 29  1  0
 11 30  1  0
 12 31  1  0
 16 32  1  0
 18 33  1  0
 19 34  1  0
 20 35  1  0
 21 36  1  0
 22 37  1  0
M  END
$$$$
