
     RDKit          3D

 38 40  0  0  0  0  0  0  0  0999 V2000
   -1.4251    4.4274    0.1212 O   0  0  0  0  0  0  0  0  0  0  0  0
   -0.7493    3.2191   -0.0191 C   0  0  0  0  0  0  0  0  0  0  0  0
    0.4288    3.2118   -0.4659 O   0  0  0  0  0  0  0  0  0  0  0  0
   -1.4268    1.9583    0.3324 C   0  0  0  0  0  0  0  0  0  0  0  0
   -2.6532    1.9912    0.6250 O   0  0  0  0  0  0  0  0  0  0  0  0
   -0.7243    0.6954    0.3277 N   0  0  0  0  0  0  0  0  0  0  0  0
   -1.4820   -0.5279    0.1816 C   0  0  0  0  0  0  0  0  0  0  0  0
   -1.4228   -1.4939    1.2044 C   0  0  0  0  0  0  0  0  0  0  0  0
   -2.1885   -2.6569    1.1346 C   0  0  0  0  0  0  0  0  0  0  0  0
   -3.0299   -2.8739    0.0468 C   0  0  0  0  0  0  0  0  0  0  0  0
   -3.1003   -1.9346   -0.9824 C   0  0  0  0  0  0  0  0  0  0  0  0
   -2.3254   -0.7602   -0.9428 C   0  0  0  0  0  0  0  0  0  0  0  0
   -2.3989    0.1644   -2.1021 C   0  0  0  0  0  0  0  0  0  0  0  0
   -3.5156    0.1472   -2.9340 O   0  0  0  0  0  0  0  0  0  0  0  0
   -1.4488    0.9475   -2.3693 O   0  0  0  0  0  0  0  0  0  0  0  0
    0.6248    0.6309    0.8456 C   0  0  0  0  0  0  0  0  0  0  0  0
    0.9014    1.2120    2.0959 C   0  0  0  0  0  0  0  0  0  0  0  0
    2.1762    1.1365    2.6545 C   0  0  0  0  0  0  0  0  0  0  0  0
    3.2006    0.4762    1.9799 C   0  0  0  0  0  0  0  0  0  0  0  0
    2.9591   -0.1123    0.7313 C   0  0  0  0  0  0  0  0  0  0  0  0
    1.6647   -0.0377    0.1482 C   0  0  0  0  0  0  0  0  0  0  0  0
    1.4610   -0.6165   -1.1204 C   0  0  0  0  0  0  0  0  0  0  0  0
    2.5050   -1.2684   -1.7811 C   0  0  0  0  0  0  0  0  0  0  0  0
    3.7678   -1.3484   -1.1949 C   0  0  0  0  0  0  0  0  0  0  0  0
    3.9976   -0.7715    0.0545 C   0  0  0  0  0  0  0  0  0  0  0  0
   -0.9791    5.3037   -0.1227 H   0  0  0  0  0  0  0  0  0  0  0  0
   -0.7969   -1.3345    2.0732 H   0  0  0  0  0  0  0  0  0  0  0  0
   -2.1364   -3.3874    1.9316 H   0  0  0  0  0  0  0  0  0  0  0  0
   -3.6260   -3.7760   -0.0029 H   0  0  0  0  0  0  0  0  0  0  0  0
   -3.7490   -2.1408   -1.8248 H   0  0  0  0  0  0  0  0  0  0  0  0
   -3.5765    0.7629   -3.7362 H   0  0  0  0  0  0  0  0  0  0  0  0
    0.1163    1.7128    2.6483 H   0  0  0  0  0  0  0  0  0  0  0  0
    2.3691    1.5868    3.6197 H   0  0  0  0  0  0  0  0  0  0  0  0
    4.1833    0.4267    2.4339 H   0  0  0  0  0  0  0  0  0  0  0  0
    0.5051   -0.5666   -1.6160 H   0  0  0  0  0  0  0  0  0  0  0  0
    2.3343   -1.7110   -2.7541 H   0  0  0  0  0  0  0  0  0  0  0  0
    4.5724   -1.8544   -1.7127 H   0  0  0  0  0  0  0  0  0  0  0  0
    4.9873   -0.8378    0.4908 H   0  0  0  0  0  0  0  0  0  0  0  0
  1  2  1  0
  2  3  2  0
  2  4  1  0
  4  5  2  0
  4  6  1  0
  6  7  1  0
  7  8  2  0
  8  9  1  0
  9 10  2  0
 10 11  1  0
 11 12  2  0
 12 13  1  0
 13 14  1  0
 13 15  2  0
  6 16  1  0
 16 17  2  0
 17 18  1  0
 18 19  2  0
 19 20  1  0
 20 21  2  0
 21 22  1  0
 22 23  2  0
 23 24  1  0
 24 25  2  0
 12  7  1  0
 21 16  1  0
 25 20  1  0
  1 26  1  0
  8 27  1  0
  9 28  1  0
 10 29  1  0
 11 30  1  0
 14 31  1  0
 17 32  1  0
 18 33  1  0
 19 34  1  0
 22 35  1  0
 23 36  1  0
 24 37  1  0
 25 38  1  0
M  END
$$$$
