
     RDKit          3D

 65 68  0  0  0  0  0  0  0  0999 V2000
   -3.2900    0.7158   -1.0852 C   0  0  2  0  0  0  0  0  0  0  0  0
   -1.8229    0.3807   -1.4379 C   0  0  0  0  0  0  0  0  0  0  0  0
   -0.7983    1.4415   -0.9518 C   0  0  1  0  0  0  0  0  0  0  0  0
   -1.2543    2.8604   -1.3647 C   0  0  0  0  0  0  0  0  0  0  0  0
   -0.4258    1.3083    0.5797 C   0  0  2  0  0  0  0  0  0  0  0  0
    0.4125    2.5024    0.9768 C   0  0  0  0  0  0  0  0  0  0  0  0
    1.6699    2.2140    1.2370 C   0  0  0  0  0  0  0  0  0  0  0  0
    2.6909    3.2479    1.6072 C   0  0  0  0  0  0  0  0  0  0  0  0
    1.9772    0.7832    1.0429 C   0  0  2  0  0  0  0  0  0  0  0  0
    2.7562    0.6645   -0.1501 O   0  0  0  0  0  0  0  0  0  0  0  0
    3.6875   -0.3563   -0.3773 C   0  0  0  0  0  0  0  0  0  0  0  0
    3.9346   -1.1953    0.5313 O   0  0  0  0  0  0  0  0  0  0  0  0
    4.3473   -0.4414   -1.7062 C   0  0  0  0  0  0  0  0  0  0  0  0
    3.7749    0.3928   -2.8218 C   0  0  0  0  0  0  0  0  0  0  0  0
    5.4673   -1.1557   -1.9454 C   0  0  0  0  0  0  0  0  0  0  0  0
    6.1961   -1.9765   -0.9245 C   0  0  0  0  0  0  0  0  0  0  0  0
    0.5726    0.0993    0.8915 C   0  0  2  0  0  0  0  0  0  0  0  0
    0.6076   -0.8079   -0.1902 O   0  0  0  0  0  0  0  0  0  0  0  0
    0.1715   -0.6701    2.2102 C   0  0  2  0  0  0  0  0  0  0  0  0
    1.2685   -1.3366    2.7949 O   0  0  0  0  0  0  0  0  0  0  0  0
   -0.9894   -1.6401    1.9714 C   0  0  0  0  0  0  0  0  0  0  0  0
   -0.7771   -3.1334    2.1632 C   0  0  0  0  0  0  0  0  0  0  0  0
   -0.1158   -3.6764    1.0540 O   0  0  0  0  0  0  0  0  0  0  0  0
   -2.2105   -1.2342    1.5477 C   0  0  0  0  0  0  0  0  0  0  0  0
   -2.7152    0.1850    1.4261 C   0  0  1  0  0  0  0  0  0  0  0  0
   -1.6982    1.3066    1.4403 C   0  0  0  0  0  0  0  0  0  0  0  0
   -1.9625    2.2854    2.1286 O   0  0  0  0  0  0  0  0  0  0  0  0
   -3.8014    0.4636    0.3496 C   0  0  2  0  0  0  0  0  0  0  0  0
   -4.2787   -0.4318   -0.8217 C   0  0  0  0  0  0  0  0  0  0  0  0
   -5.7120   -0.1360   -1.2878 C   0  0  0  0  0  0  0  0  0  0  0  0
   -3.8502   -1.9008   -1.0203 C   0  0  0  0  0  0  0  0  0  0  0  0
   -3.7342    1.6083   -1.5771 H   0  0  0  0  0  0  0  0  0  0  0  0
   -1.5180   -0.6043   -1.0778 H   0  0  0  0  0  0  0  0  0  0  0  0
   -1.7645    0.3211   -2.5461 H   0  0  0  0  0  0  0  0  0  0  0  0
    0.1355    1.2610   -1.5314 H   0  0  0  0  0  0  0  0  0  0  0  0
   -0.4018    3.5709   -1.3344 H   0  0  0  0  0  0  0  0  0  0  0  0
   -1.6328    2.8587   -2.4094 H   0  0  0  0  0  0  0  0  0  0  0  0
   -2.0558    3.2320   -0.6918 H   0  0  0  0  0  0  0  0  0  0  0  0
    0.0310    3.5190    1.0343 H   0  0  0  0  0  0  0  0  0  0  0  0
    2.3984    3.7389    2.5590 H   0  0  0  0  0  0  0  0  0  0  0  0
    2.7595    4.0125    0.8049 H   0  0  0  0  0  0  0  0  0  0  0  0
    3.6882    2.7774    1.7383 H   0  0  0  0  0  0  0  0  0  0  0  0
    2.5636    0.4404    1.9211 H   0  0  0  0  0  0  0  0  0  0  0  0
    4.1695    1.4279   -2.7490 H   0  0  0  0  0  0  0  0  0  0  0  0
    2.6665    0.4229   -2.7536 H   0  0  0  0  0  0  0  0  0  0  0  0
    4.0339   -0.0236   -3.8192 H   0  0  0  0  0  0  0  0  0  0  0  0
    5.9045   -1.1296   -2.9374 H   0  0  0  0  0  0  0  0  0  0  0  0
    6.4939   -1.3432   -0.0625 H   0  0  0  0  0  0  0  0  0  0  0  0
    7.1162   -2.4015   -1.3778 H   0  0  0  0  0  0  0  0  0  0  0  0
    5.5591   -2.8193   -0.5836 H   0  0  0  0  0  0  0  0  0  0  0  0
    1.2548   -1.5285    0.0135 H   0  0  0  0  0  0  0  0  0  0  0  0
   -0.1502    0.0640    2.9788 H   0  0  0  0  0  0  0  0  0  0  0  0
    1.6692   -1.9420    2.1212 H   0  0  0  0  0  0  0  0  0  0  0  0
   -0.1711   -3.3213    3.0733 H   0  0  0  0  0  0  0  0  0  0  0  0
   -1.7372   -3.6727    2.3330 H   0  0  0  0  0  0  0  0  0  0  0  0
   -0.7779   -3.7001    0.3143 H   0  0  0  0  0  0  0  0  0  0  0  0
   -2.9899   -1.9873    1.4915 H   0  0  0  0  0  0  0  0  0  0  0  0
   -3.2755    0.2976    2.3815 H   0  0  0  0  0  0  0  0  0  0  0  0
   -4.5158    1.2639    0.6450 H   0  0  0  0  0  0  0  0  0  0  0  0
   -5.9938    0.9309   -1.1554 H   0  0  0  0  0  0  0  0  0  0  0  0
   -5.8128   -0.3883   -2.3644 H   0  0  0  0  0  0  0  0  0  0  0  0
   -6.4255   -0.7573   -0.7068 H   0  0  0  0  0  0  0  0  0  0  0  0
   -3.9678   -2.1642   -2.0922 H   0  0  0  0  0  0  0  0  0  0  0  0
   -4.5302   -2.5539   -0.4343 H   0  0  0  0  0  0  0  0  0  0  0  0
   -2.8214   -2.1689   -0.7426 H   0  0  0  0  0  0  0  0  0  0  0  0
  1  2  1  0
  2  3  1  0
  3  4  1  0
  3  5  1  0
  5  6  1  1
  6  7  2  0
  7  8  1  0
  7  9  1  0
  9 10  1  0
 10 11  1  0
 11 12  2  0
 11 13  1  0
 13 14  1  0
 13 15  2  0
 15 16  1  0
  9 17  1  0
 17 18  1  6
 17 19  1  0
 19 20  1  0
 19 21  1  0
 21 22  1  0
 22 23  1  0
 21 24  2  0
 24 25  1  0
 25 26  1  0
 26 27  2  0
 25 28  1  0
 28 29  1  0
 29 30  1  0
 29 31  1  0
 28  1  1  0
 29  1  1  0
 17  5  1  0
 26  5  1  0
  1 32  1  6
  2 33  1  0
  2 34  1  0
  3 35  1  6
  4 36  1  0
  4 37  1  0
  4 38  1  0
  6 39  1  0
  8 40  1  0
  8 41  1  0
  8 42  1  0
  9 43  1  1
 14 44  1  0
 14 45  1  0
 14 46  1  0
 15 47  1  0
 16 48  1  0
 16 49  1  0
 16 50  1  0
 18 51  1  0
 19 52  1  1
 20 53  1  0
 22 54  1  0
 22 55  1  0
 23 56  1  0
 24 57  1  0
 25 58  1  1
 28 59  1  1
 30 60  1  0
 30 61  1  0
 30 62  1  0
 31 63  1  0
 31 64  1  0
 31 65  1  0
M  END
$$$$
