
     RDKit          3D

 33 35  0  0  0  0  0  0  0  0999 V2000
   -2.7225    0.4160    0.5030 C   0  0  1  0  0  0  0  0  0  0  0  0
   -3.2956   -0.2858    1.7411 C   0  0  0  0  0  0  0  0  0  0  0  0
   -3.5500    0.6462    2.7570 O   0  0  0  0  0  0  0  0  0  0  0  0
   -1.5195    1.0727    0.8374 O   0  0  0  0  0  0  0  0  0  0  0  0
   -0.6328    0.9442   -0.2567 C   0  0  1  0  0  0  0  0  0  0  0  0
    0.6179    0.3256    0.1937 N   0  0  0  0  0  0  0  0  0  0  0  0
    0.7513   -0.6823    1.0864 C   0  0  0  0  0  0  0  0  0  0  0  0
    2.0791   -1.0883    1.1779 C   0  0  0  0  0  0  0  0  0  0  0  0
    2.7114   -2.6978    2.3931 I   0  0  0  0  0  0  0  0  0  0  0  0
    2.7780   -0.2849    0.2797 C   0  0  0  0  0  0  0  0  0  0  0  0
    4.1159   -0.2019   -0.1362 C   0  0  0  0  0  0  0  0  0  0  0  0
    5.1600   -0.9947    0.4307 N   0  0  0  0  0  0  0  0  0  0  0  0
    4.4211    0.6970   -1.1181 N   0  0  0  0  0  0  0  0  0  0  0  0
    3.4695    1.4994   -1.6839 C   0  0  0  0  0  0  0  0  0  0  0  0
    2.1721    1.4246   -1.2740 N   0  0  0  0  0  0  0  0  0  0  0  0
    1.8499    0.5416   -0.2976 C   0  0  0  0  0  0  0  0  0  0  0  0
   -1.2877    0.0911   -1.3504 C   0  0  2  0  0  0  0  0  0  0  0  0
   -1.7198    0.8873   -2.4308 O   0  0  0  0  0  0  0  0  0  0  0  0
   -2.4385   -0.5673   -0.6277 C   0  0  2  0  0  0  0  0  0  0  0  0
   -3.5523   -0.7336   -1.4672 O   0  0  0  0  0  0  0  0  0  0  0  0
   -3.4536    1.1812    0.1560 H   0  0  0  0  0  0  0  0  0  0  0  0
   -2.5651   -1.0304    2.1227 H   0  0  0  0  0  0  0  0  0  0  0  0
   -4.2312   -0.8300    1.4780 H   0  0  0  0  0  0  0  0  0  0  0  0
   -4.3804    1.1264    2.5008 H   0  0  0  0  0  0  0  0  0  0  0  0
   -0.4112    1.9639   -0.6435 H   0  0  0  0  0  0  0  0  0  0  0  0
   -0.0733   -1.1287    1.6264 H   0  0  0  0  0  0  0  0  0  0  0  0
    5.0253   -1.5651    1.2886 H   0  0  0  0  0  0  0  0  0  0  0  0
    6.1243   -0.9373    0.0346 H   0  0  0  0  0  0  0  0  0  0  0  0
    3.7483    2.1982   -2.4604 H   0  0  0  0  0  0  0  0  0  0  0  0
   -0.5898   -0.6808   -1.7446 H   0  0  0  0  0  0  0  0  0  0  0  0
   -2.3298    1.5873   -2.0772 H   0  0  0  0  0  0  0  0  0  0  0  0
   -2.0954   -1.5522   -0.2293 H   0  0  0  0  0  0  0  0  0  0  0  0
   -4.1754   -1.3417   -0.9911 H   0  0  0  0  0  0  0  0  0  0  0  0
  1  2  1  0
  2  3  1  0
  1  4  1  0
  4  5  1  0
  5  6  1  0
  6  7  1  0
  7  8  2  0
  8  9  1  0
  8 10  1  0
 10 11  2  0
 11 12  1  0
 11 13  1  0
 13 14  2  0
 14 15  1  0
 15 16  2  0
  5 17  1  0
 17 18  1  0
 17 19  1  0
 19 20  1  0
 19  1  1  0
 16  6  1  0
 16 10  1  0
  1 21  1  6
  2 22  1  0
  2 23  1  0
  3 24  1  0
  5 25  1  6
  7 26  1  0
 12 27  1  0
 12 28  1  0
 14 29  1  0
 17 30  1  6
 18 31  1  0
 19 32  1  1
 20 33  1  0
M  END
$$$$
