
     RDKit          3D

 16 15  0  0  0  0  0  0  0  0999 V2000
    2.6016    0.6884   -0.8075 O   0  0  0  0  0  0  0  0  0  0  0  0
    1.4651   -0.1094   -0.6162 C   0  0  0  0  0  0  0  0  0  0  0  0
    0.5731    0.4951    0.4750 C   0  0  0  0  0  0  0  0  0  0  0  0
   -0.5883   -0.4296    0.8768 C   0  0  0  0  0  0  0  0  0  0  0  0
   -1.6296   -0.6341   -0.2309 C   0  0  0  0  0  0  0  0  0  0  0  0
   -2.2220    0.5854   -0.5909 O   0  0  0  0  0  0  0  0  0  0  0  0
    2.3044    1.4900   -1.3125 H   0  0  0  0  0  0  0  0  0  0  0  0
    1.7974   -1.1231   -0.3068 H   0  0  0  0  0  0  0  0  0  0  0  0
    0.9056   -0.2055   -1.5733 H   0  0  0  0  0  0  0  0  0  0  0  0
    1.1965    0.6767    1.3776 H   0  0  0  0  0  0  0  0  0  0  0  0
    0.1823    1.4798    0.1398 H   0  0  0  0  0  0  0  0  0  0  0  0
   -0.1853   -1.4191    1.1845 H   0  0  0  0  0  0  0  0  0  0  0  0
   -1.0977    0.0088    1.7625 H   0  0  0  0  0  0  0  0  0  0  0  0
   -1.1805   -1.1446   -1.1128 H   0  0  0  0  0  0  0  0  0  0  0  0
   -2.4250   -1.3053    0.1565 H   0  0  0  0  0  0  0  0  0  0  0  0
   -1.6976    0.9465   -1.3524 H   0  0  0  0  0  0  0  0  0  0  0  0
  1  2  1  0
  2  3  1  0
  3  4  1  0
  4  5  1  0
  5  6  1  0
  1  7  1  0
  2  8  1  0
  2  9  1  0
  3 10  1  0
  3 11  1  0
  4 12  1  0
  4 13  1  0
  5 14  1  0
  5 15  1  0
  6 16  1  0
M  END
$$$$
