
     RDKit          3D

 34 37  0  0  0  0  0  0  0  0999 V2000
    1.5829   -3.0437   -0.9350 N   0  0  0  0  0  0  0  0  0  0  0  0
    0.2534   -2.7602   -0.5177 C   0  0  0  0  0  0  0  0  0  0  0  0
   -0.6400   -3.6436   -0.4391 O   0  0  0  0  0  0  0  0  0  0  0  0
    0.0704   -1.3203   -0.2663 C   0  0  0  0  0  0  0  0  0  0  0  0
    1.4206   -0.7619   -0.4822 C   0  0  0  0  0  0  0  0  0  0  0  0
    2.2534   -1.7926   -0.8898 C   0  0  0  0  0  0  0  0  0  0  0  0
    3.6188   -1.5976   -1.0869 C   0  0  0  0  0  0  0  0  0  0  0  0
    4.1547   -0.3256   -0.8410 C   0  0  0  0  0  0  0  0  0  0  0  0
    3.3326    0.7143   -0.3585 C   0  0  0  0  0  0  0  0  0  0  0  0
    1.9607    0.4843   -0.1405 C   0  0  0  0  0  0  0  0  0  0  0  0
    4.0368    2.2765    0.0449 S   0  0  0  0  0  6  0  0  0  0  0  0
    4.5356    2.2746    1.6500 O   0  0  0  0  0  0  0  0  0  0  0  0
    5.2118    2.5585   -0.8492 O   0  0  0  0  0  0  0  0  0  0  0  0
    3.0120    3.3575   -0.1553 O   0  0  0  0  0  0  0  0  0  0  0  0
   -1.0992   -0.6903   -0.0362 C   0  0  0  0  0  0  0  0  0  0  0  0
   -2.3041   -1.3613    0.3619 N   0  0  0  0  0  0  0  0  0  0  0  0
   -3.2882   -0.3424    0.5133 C   0  0  0  0  0  0  0  0  0  0  0  0
   -4.6120   -0.5169    0.9153 C   0  0  0  0  0  0  0  0  0  0  0  0
   -5.4392    0.6179    0.9896 C   0  0  0  0  0  0  0  0  0  0  0  0
   -4.9330    1.8935    0.6609 C   0  0  0  0  0  0  0  0  0  0  0  0
   -3.5946    2.0452    0.2587 C   0  0  0  0  0  0  0  0  0  0  0  0
   -2.7945    0.9050    0.2040 C   0  0  0  0  0  0  0  0  0  0  0  0
   -1.4047    0.7440   -0.1841 C   0  0  0  0  0  0  0  0  0  0  0  0
   -0.7017    1.6236   -0.7457 O   0  0  0  0  0  0  0  0  0  0  0  0
    1.9928   -3.9781   -1.1569 H   0  0  0  0  0  0  0  0  0  0  0  0
    4.2567   -2.4152   -1.3964 H   0  0  0  0  0  0  0  0  0  0  0  0
    5.2152   -0.1621   -0.9839 H   0  0  0  0  0  0  0  0  0  0  0  0
    1.3647    1.2409    0.3435 H   0  0  0  0  0  0  0  0  0  0  0  0
    5.2032    1.5451    1.7085 H   0  0  0  0  0  0  0  0  0  0  0  0
   -2.4226   -2.3602    0.6379 H   0  0  0  0  0  0  0  0  0  0  0  0
   -4.9943   -1.4994    1.1595 H   0  0  0  0  0  0  0  0  0  0  0  0
   -6.4713    0.5116    1.2973 H   0  0  0  0  0  0  0  0  0  0  0  0
   -5.5790    2.7599    0.7173 H   0  0  0  0  0  0  0  0  0  0  0  0
   -3.1979    3.0188    0.0018 H   0  0  0  0  0  0  0  0  0  0  0  0
  1  2  1  0
  2  3  2  0
  2  4  1  0
  4  5  1  0
  5  6  2  0
  6  7  1  0
  7  8  2  0
  8  9  1  0
  9 10  2  0
  9 11  1  0
 11 12  1  0
 11 13  2  0
 11 14  2  0
  4 15  2  0
 15 16  1  0
 16 17  1  0
 17 18  2  0
 18 19  1  0
 19 20  2  0
 20 21  1  0
 21 22  2  0
 22 23  1  0
 23 24  2  0
  6  1  1  0
 23 15  1  0
 10  5  1  0
 22 17  1  0
  1 25  1  0
  7 26  1  0
  8 27  1  0
 10 28  1  0
 12 29  1  0
 16 30  1  0
 18 31  1  0
 19 32  1  0
 20 33  1  0
 21 34  1  0
M  END
$$$$
