
     RDKit          3D

 25 27  0  0  0  0  0  0  0  0999 V2000
    4.4153   -0.2413   -0.1885 N   0  0  0  0  0  0  0  0  0  0  0  0
    3.0157    0.0203   -0.0842 C   0  0  0  0  0  0  0  0  0  0  0  0
    2.1297   -1.0053   -0.1877 N   0  0  0  0  0  0  0  0  0  0  0  0
    0.7928   -0.7868   -0.0991 C   0  0  0  0  0  0  0  0  0  0  0  0
    0.3071    0.5097    0.1002 C   0  0  0  0  0  0  0  0  0  0  0  0
   -1.1132    0.6915    0.2299 N   0  0  0  0  0  0  0  0  0  0  0  0
   -2.0039   -0.4345    0.5068 C   0  0  1  0  0  0  0  0  0  0  0  0
   -3.4269    0.0653    0.1357 C   0  0  0  0  0  0  0  0  0  0  0  0
   -3.2346    1.3470   -0.4503 O   0  0  0  0  0  0  0  0  0  0  0  0
   -1.9028    1.6872   -0.3961 C   0  0  0  0  0  0  0  0  0  0  0  0
   -1.4397    2.7333   -0.9209 O   0  0  0  0  0  0  0  0  0  0  0  0
   -1.5681   -1.6514   -0.3324 C   0  0  0  0  0  0  0  0  0  0  0  0
   -0.1286   -1.8831   -0.1872 N   0  0  0  0  0  0  0  0  0  0  0  0
    1.2355    1.5526    0.2441 C   0  0  0  0  0  0  0  0  0  0  0  0
    0.8527    2.7242    0.5052 O   0  0  0  0  0  0  0  0  0  0  0  0
    2.5669    1.2890    0.1325 N   0  0  0  0  0  0  0  0  0  0  0  0
    4.7589   -1.2141   -0.3490 H   0  0  0  0  0  0  0  0  0  0  0  0
    5.1107    0.5332   -0.1069 H   0  0  0  0  0  0  0  0  0  0  0  0
   -1.9515   -0.6897    1.5883 H   0  0  0  0  0  0  0  0  0  0  0  0
   -3.9442   -0.6056   -0.5836 H   0  0  0  0  0  0  0  0  0  0  0  0
   -4.0484    0.1704    1.0505 H   0  0  0  0  0  0  0  0  0  0  0  0
   -1.7879   -1.4678   -1.4068 H   0  0  0  0  0  0  0  0  0  0  0  0
   -2.1282   -2.5542   -0.0068 H   0  0  0  0  0  0  0  0  0  0  0  0
    0.2379   -2.8596   -0.2460 H   0  0  0  0  0  0  0  0  0  0  0  0
    3.2549    2.0699    0.2316 H   0  0  0  0  0  0  0  0  0  0  0  0
  1  2  1  0
  2  3  2  0
  3  4  1  0
  4  5  2  0
  5  6  1  0
  6  7  1  0
  7  8  1  0
  8  9  1  0
  9 10  1  0
 10 11  2  0
  7 12  1  0
 12 13  1  0
  5 14  1  0
 14 15  2  0
 14 16  1  0
 16  2  1  0
 13  4  1  0
 10  6  1  0
  1 17  1  0
  1 18  1  0
  7 19  1  1
  8 20  1  0
  8 21  1  0
 12 22  1  0
 12 23  1  0
 13 24  1  0
 16 25  1  0
M  END
$$$$
