
     RDKit          3D

 48 50  0  0  0  0  0  0  0  0999 V2000
    2.1980    0.0890    0.9968 C   0  0  1  0  0  0  0  0  0  0  0  0
    2.7104    0.4731    2.3170 N   0  0  0  0  0  0  0  0  0  0  0  0
    3.2191   -0.7952    0.2351 C   0  0  0  0  0  0  0  0  0  0  0  0
    4.4909   -0.0430   -0.0645 C   0  0  0  0  0  0  0  0  0  0  0  0
    5.6296   -0.2164    0.7407 C   0  0  0  0  0  0  0  0  0  0  0  0
    6.7983    0.5028    0.4718 C   0  0  0  0  0  0  0  0  0  0  0  0
    6.8374    1.4019   -0.5975 C   0  0  0  0  0  0  0  0  0  0  0  0
    5.7070    1.5852   -1.3986 C   0  0  0  0  0  0  0  0  0  0  0  0
    4.5362    0.8683   -1.1332 C   0  0  0  0  0  0  0  0  0  0  0  0
    0.8081   -0.5836    1.1726 C   0  0  2  0  0  0  0  0  0  0  0  0
    0.8974   -1.7241    1.9917 O   0  0  0  0  0  0  0  0  0  0  0  0
    0.0703   -0.9162   -0.1442 C   0  0  0  0  0  0  0  0  0  0  0  0
   -0.1132    0.2873   -0.9625 N   0  0  0  0  0  0  0  0  0  0  0  0
   -1.3135   -0.0047   -2.1856 S   0  0  0  0  0  6  0  0  0  0  0  0
   -0.9639   -1.2593   -2.9382 O   0  0  0  0  0  0  0  0  0  0  0  0
   -1.3379    1.1531   -3.1428 O   0  0  0  0  0  0  0  0  0  0  0  0
   -2.9033   -0.1676   -1.4448 C   0  0  0  0  0  0  0  0  0  0  0  0
   -3.8509   -1.0440   -1.9902 C   0  0  0  0  0  0  0  0  0  0  0  0
   -5.1119   -1.1760   -1.4024 C   0  0  0  0  0  0  0  0  0  0  0  0
   -5.4400   -0.4290   -0.2617 C   0  0  0  0  0  0  0  0  0  0  0  0
   -6.7025   -0.5548    0.3385 C   0  0  0  0  0  0  0  0  0  0  0  0
   -7.0168    0.1963    1.4748 C   0  0  0  0  0  0  0  0  0  0  0  0
   -6.0770    1.0760    2.0189 C   0  0  0  0  0  0  0  0  0  0  0  0
   -4.8162    1.2110    1.4306 C   0  0  0  0  0  0  0  0  0  0  0  0
   -4.4875    0.4626    0.2895 C   0  0  0  0  0  0  0  0  0  0  0  0
   -3.2254    0.5888   -0.3099 C   0  0  0  0  0  0  0  0  0  0  0  0
    2.0444    1.0242    0.4140 H   0  0  0  0  0  0  0  0  0  0  0  0
    3.5025    1.1453    2.1974 H   0  0  0  0  0  0  0  0  0  0  0  0
    3.0819   -0.3707    2.8115 H   0  0  0  0  0  0  0  0  0  0  0  0
    3.4493   -1.7110    0.8213 H   0  0  0  0  0  0  0  0  0  0  0  0
    2.7909   -1.1321   -0.7310 H   0  0  0  0  0  0  0  0  0  0  0  0
    5.6110   -0.9038    1.5774 H   0  0  0  0  0  0  0  0  0  0  0  0
    7.6730    0.3650    1.0942 H   0  0  0  0  0  0  0  0  0  0  0  0
    7.7426    1.9583   -0.8036 H   0  0  0  0  0  0  0  0  0  0  0  0
    5.7372    2.2846   -2.2241 H   0  0  0  0  0  0  0  0  0  0  0  0
    3.6648    1.0234   -1.7576 H   0  0  0  0  0  0  0  0  0  0  0  0
    0.1660    0.1485    1.7113 H   0  0  0  0  0  0  0  0  0  0  0  0
    1.3197   -2.4484    1.4611 H   0  0  0  0  0  0  0  0  0  0  0  0
    0.6100   -1.6990   -0.7199 H   0  0  0  0  0  0  0  0  0  0  0  0
   -0.9191   -1.3411    0.1357 H   0  0  0  0  0  0  0  0  0  0  0  0
    0.7811    0.4740   -1.4716 H   0  0  0  0  0  0  0  0  0  0  0  0
   -3.6150   -1.6261   -2.8718 H   0  0  0  0  0  0  0  0  0  0  0  0
   -5.8292   -1.8608   -1.8388 H   0  0  0  0  0  0  0  0  0  0  0  0
   -7.4434   -1.2317   -0.0697 H   0  0  0  0  0  0  0  0  0  0  0  0
   -7.9914    0.0964    1.9349 H   0  0  0  0  0  0  0  0  0  0  0  0
   -6.3265    1.6547    2.8989 H   0  0  0  0  0  0  0  0  0  0  0  0
   -4.1001    1.8976    1.8663 H   0  0  0  0  0  0  0  0  0  0  0  0
   -2.4927    1.2709    0.1053 H   0  0  0  0  0  0  0  0  0  0  0  0
  1  2  1  0
  1  3  1  0
  3  4  1  0
  4  5  2  0
  5  6  1  0
  6  7  2  0
  7  8  1  0
  8  9  2  0
  1 10  1  0
 10 11  1  0
 10 12  1  0
 12 13  1  0
 13 14  1  0
 14 15  2  0
 14 16  2  0
 14 17  1  0
 17 18  2  0
 18 19  1  0
 19 20  2  0
 20 21  1  0
 21 22  2  0
 22 23  1  0
 23 24  2  0
 24 25  1  0
 25 26  2  0
  9  4  1  0
 26 17  1  0
 25 20  1  0
  1 27  1  6
  2 28  1  0
  2 29  1  0
  3 30  1  0
  3 31  1  0
  5 32  1  0
  6 33  1  0
  7 34  1  0
  8 35  1  0
  9 36  1  0
 10 37  1  1
 11 38  1  0
 12 39  1  0
 12 40  1  0
 13 41  1  0
 18 42  1  0
 19 43  1  0
 21 44  1  0
 22 45  1  0
 23 46  1  0
 24 47  1  0
 26 48  1  0
M  END
$$$$
