
     RDKit          3D

 19 18  0  0  0  0  0  0  0  0999 V2000
   -2.0709   -0.1627   -1.6482 C   0  0  0  0  0  0  0  0  0  0  0  0
   -1.5833   -0.9404   -0.4281 C   0  0  0  0  0  0  0  0  0  0  0  0
   -1.7911   -2.7301   -0.7072 S   0  0  0  0  0  0  0  0  0  0  0  0
   -0.1409   -0.6240   -0.1429 C   0  0  0  0  0  0  0  0  0  0  0  0
    0.7523   -0.9997   -0.9513 O   0  0  0  0  0  0  0  0  0  0  0  0
    0.2168    0.1221    1.0298 N   0  0  0  0  0  0  0  0  0  0  0  0
    1.5978    0.4877    1.3334 C   0  0  0  0  0  0  0  0  0  0  0  0
    2.0582    1.5739    0.4151 C   0  0  0  0  0  0  0  0  0  0  0  0
    2.9177    1.2761   -0.6375 O   0  0  0  0  0  0  0  0  0  0  0  0
    1.6457    2.7532    0.5779 O   0  0  0  0  0  0  0  0  0  0  0  0
   -3.1450   -0.3794   -1.8300 H   0  0  0  0  0  0  0  0  0  0  0  0
   -1.9588    0.9291   -1.4746 H   0  0  0  0  0  0  0  0  0  0  0  0
   -1.4907   -0.4465   -2.5525 H   0  0  0  0  0  0  0  0  0  0  0  0
   -2.2127   -0.6565    0.4428 H   0  0  0  0  0  0  0  0  0  0  0  0
   -1.4115   -3.0571    0.6091 H   0  0  0  0  0  0  0  0  0  0  0  0
   -0.5301    0.4073    1.7026 H   0  0  0  0  0  0  0  0  0  0  0  0
    2.2558   -0.4032    1.2414 H   0  0  0  0  0  0  0  0  0  0  0  0
    1.6627    0.8507    2.3818 H   0  0  0  0  0  0  0  0  0  0  0  0
    3.2278    1.9994   -1.2754 H   0  0  0  0  0  0  0  0  0  0  0  0
  1  2  1  0
  2  3  1  0
  2  4  1  0
  4  5  2  0
  4  6  1  0
  6  7  1  0
  7  8  1  0
  8  9  1  0
  8 10  2  0
  1 11  1  0
  1 12  1  0
  1 13  1  0
  2 14  1  0
  3 15  1  0
  6 16  1  0
  7 17  1  0
  7 18  1  0
  9 19  1  0
M  END
$$$$
