
     RDKit          3D

 65 66  0  0  0  0  0  0  0  0999 V2000
   -3.4523    0.4517    0.1553 C   0  0  2  0  0  0  0  0  0  0  0  0
   -3.1970    0.2780   -1.2805 N   0  0  0  0  0  4  0  0  0  0  0  0
   -4.0050    1.8628    0.4610 C   0  0  0  0  0  0  0  0  0  0  0  0
   -5.3795    2.0679   -0.1237 C   0  0  0  0  0  0  0  0  0  0  0  0
   -6.5082    1.5346    0.5213 C   0  0  0  0  0  0  0  0  0  0  0  0
   -7.7813    1.7038   -0.0317 C   0  0  0  0  0  0  0  0  0  0  0  0
   -7.9363    2.4010   -1.2330 C   0  0  0  0  0  0  0  0  0  0  0  0
   -6.8180    2.9286   -1.8844 C   0  0  0  0  0  0  0  0  0  0  0  0
   -5.5430    2.7620   -1.3347 C   0  0  0  0  0  0  0  0  0  0  0  0
   -2.1767    0.1985    0.9336 C   0  0  0  0  0  0  0  0  0  0  0  0
   -1.3213    1.1220    1.0249 O   0  0  0  0  0  0  0  0  0  0  0  0
   -1.8827   -1.0933    1.5029 N   0  0  0  0  0  0  0  0  0  0  0  0
   -2.7875   -2.2326    1.4730 C   0  0  0  0  0  0  0  0  0  0  0  0
   -2.0192   -3.3889    2.1001 C   0  0  0  0  0  0  0  0  0  0  0  0
   -0.8562   -2.7523    2.8554 C   0  0  0  0  0  0  0  0  0  0  0  0
   -0.6407   -1.3852    2.2054 C   0  0  1  0  0  0  0  0  0  0  0  0
    0.5063   -1.4232    1.2336 C   0  0  0  0  0  0  0  0  0  0  0  0
    0.3582   -2.1427    0.0431 O   0  0  0  0  0  0  0  0  0  0  0  0
    1.6090   -0.7966    1.5334 N   0  0  0  0  0  0  0  0  0  0  0  0
    2.8265   -0.7323    0.7198 C   0  0  1  0  0  0  0  0  0  0  0  0
    3.6402    0.4903    1.2150 C   0  0  0  0  0  0  0  0  0  0  0  0
    4.9223    0.8143    0.4292 C   0  0  0  0  0  0  0  0  0  0  0  0
    4.6532    1.1941   -1.0343 C   0  0  0  0  0  0  0  0  0  0  0  0
    5.8872    1.6223   -1.6962 N   0  0  0  0  0  0  0  0  0  0  0  0
    5.9416    2.0400   -3.0719 C   0  0  0  0  0  0  0  0  0  0  0  0
    7.1924    2.4360   -3.6349 N   0  0  0  0  0  0  0  0  0  0  0  0
    4.8794    2.0657   -3.8168 N   0  0  0  0  0  0  0  0  0  0  0  0
    3.5838   -2.0968    0.8084 C   0  0  2  0  0  0  0  0  0  0  0  0
    4.5267   -2.0765    1.8522 O   0  0  0  0  0  0  0  0  0  0  0  0
    4.2644   -2.4761   -0.5192 C   0  0  0  0  0  0  0  0  0  0  0  0
    4.8378   -4.1647   -0.4786 Cl  0  0  0  0  0  0  0  0  0  0  0  0
   -4.2244   -0.2818    0.4718 H   0  0  0  0  0  0  0  0  0  0  0  0
   -4.0936    0.3315   -1.8152 H   0  0  0  0  0  0  0  0  0  0  0  0
   -2.5406    1.0144   -1.6293 H   0  0  0  0  0  0  0  0  0  0  0  0
   -2.7763   -0.6638   -1.4551 H   0  0  0  0  0  0  0  0  0  0  0  0
   -4.0651    2.0033    1.5632 H   0  0  0  0  0  0  0  0  0  0  0  0
   -3.3060    2.6386    0.0769 H   0  0  0  0  0  0  0  0  0  0  0  0
   -6.4006    0.9875    1.4498 H   0  0  0  0  0  0  0  0  0  0  0  0
   -8.6476    1.2924    0.4700 H   0  0  0  0  0  0  0  0  0  0  0  0
   -8.9222    2.5301   -1.6603 H   0  0  0  0  0  0  0  0  0  0  0  0
   -6.9388    3.4646   -2.8168 H   0  0  0  0  0  0  0  0  0  0  0  0
   -4.6845    3.1691   -1.8544 H   0  0  0  0  0  0  0  0  0  0  0  0
   -3.6947   -2.0051    2.0737 H   0  0  0  0  0  0  0  0  0  0  0  0
   -3.0710   -2.4784    0.4268 H   0  0  0  0  0  0  0  0  0  0  0  0
   -2.6655   -3.9858    2.7796 H   0  0  0  0  0  0  0  0  0  0  0  0
   -1.6212   -4.0506    1.2994 H   0  0  0  0  0  0  0  0  0  0  0  0
   -1.1502   -2.6097    3.9188 H   0  0  0  0  0  0  0  0  0  0  0  0
    0.0498   -3.3979    2.8248 H   0  0  0  0  0  0  0  0  0  0  0  0
   -0.4626   -0.6187    2.9935 H   0  0  0  0  0  0  0  0  0  0  0  0
    1.0849   -2.2239   -0.6548 H   0  0  0  0  0  0  0  0  0  0  0  0
    2.5229   -0.5218   -0.3276 H   0  0  0  0  0  0  0  0  0  0  0  0
    3.9096    0.3452    2.2841 H   0  0  0  0  0  0  0  0  0  0  0  0
    2.9821    1.3871    1.1821 H   0  0  0  0  0  0  0  0  0  0  0  0
    5.4089    1.6810    0.9282 H   0  0  0  0  0  0  0  0  0  0  0  0
    5.6412   -0.0268    0.4901 H   0  0  0  0  0  0  0  0  0  0  0  0
    3.9151    2.0247   -1.0661 H   0  0  0  0  0  0  0  0  0  0  0  0
    4.2414    0.3213   -1.5811 H   0  0  0  0  0  0  0  0  0  0  0  0
    6.7820    1.6224   -1.1553 H   0  0  0  0  0  0  0  0  0  0  0  0
    8.0623    2.4245   -3.0579 H   0  0  0  0  0  0  0  0  0  0  0  0
    7.2529    2.7423   -4.6316 H   0  0  0  0  0  0  0  0  0  0  0  0
    3.9313    1.7918   -3.4790 H   0  0  0  0  0  0  0  0  0  0  0  0
    2.8308   -2.8948    1.0129 H   0  0  0  0  0  0  0  0  0  0  0  0
    4.6484   -3.0123    2.1603 H   0  0  0  0  0  0  0  0  0  0  0  0
    3.5439   -2.3875   -1.3594 H   0  0  0  0  0  0  0  0  0  0  0  0
    5.1333   -1.8252   -0.7315 H   0  0  0  0  0  0  0  0  0  0  0  0
  1  2  1  0
  1  3  1  0
  3  4  1  0
  4  5  2  0
  5  6  1  0
  6  7  2  0
  7  8  1  0
  8  9  2  0
  1 10  1  0
 10 11  2  0
 10 12  1  0
 12 13  1  0
 13 14  1  0
 14 15  1  0
 15 16  1  0
 16 17  1  0
 17 18  1  0
 17 19  2  3
 19 20  1  0
 20 21  1  0
 21 22  1  0
 22 23  1  0
 23 24  1  0
 24 25  1  0
 25 26  1  0
 25 27  2  3
 20 28  1  0
 28 29  1  0
 28 30  1  0
 30 31  1  0
  9  4  1  0
 16 12  1  0
  1 32  1  1
  2 33  1  0
  2 34  1  0
  2 35  1  0
  3 36  1  0
  3 37  1  0
  5 38  1  0
  6 39  1  0
  7 40  1  0
  8 41  1  0
  9 42  1  0
 13 43  1  0
 13 44  1  0
 14 45  1  0
 14 46  1  0
 15 47  1  0
 15 48  1  0
 16 49  1  1
 18 50  1  0
 20 51  1  6
 21 52  1  0
 21 53  1  0
 22 54  1  0
 22 55  1  0
 23 56  1  0
 23 57  1  0
 24 58  1  0
 26 59  1  0
 26 60  1  0
 27 61  1  0
 28 62  1  1
 29 63  1  0
 30 64  1  0
 30 65  1  0
M  CHG  1   2   1
M  END
$$$$
