
     RDKit          3D

 24 25  0  0  0  0  0  0  0  0999 V2000
   -0.6333   -1.5581    0.0610 O   0  0  0  0  0  0  0  0  0  0  0  0
   -1.5144   -0.4964    0.2611 C   0  0  0  0  0  0  0  0  0  0  0  0
   -2.8086   -0.7485    0.7408 C   0  0  0  0  0  0  0  0  0  0  0  0
   -3.7176    0.3006    0.9057 C   0  0  0  0  0  0  0  0  0  0  0  0
   -5.3351   -0.0243    1.5018 Cl  0  0  0  0  0  0  0  0  0  0  0  0
   -3.3399    1.6070    0.5857 C   0  0  0  0  0  0  0  0  0  0  0  0
   -2.0515    1.8673    0.1127 C   0  0  0  0  0  0  0  0  0  0  0  0
   -1.1232    0.8291   -0.0348 C   0  0  0  0  0  0  0  0  0  0  0  0
    0.1593    1.1520   -0.5054 O   0  0  0  0  0  0  0  0  0  0  0  0
    1.3341    0.4545   -0.1944 C   0  0  0  0  0  0  0  0  0  0  0  0
    1.7012    0.1570    1.1365 C   0  0  0  0  0  0  0  0  0  0  0  0
    0.7507    0.7174    2.5064 Cl  0  0  0  0  0  0  0  0  0  0  0  0
    2.8830   -0.5506    1.3896 C   0  0  0  0  0  0  0  0  0  0  0  0
    3.7069   -0.9500    0.3327 C   0  0  0  0  0  0  0  0  0  0  0  0
    5.1863   -1.8343    0.6586 Cl  0  0  0  0  0  0  0  0  0  0  0  0
    3.3581   -0.6314   -0.9826 C   0  0  0  0  0  0  0  0  0  0  0  0
    2.1807    0.0745   -1.2429 C   0  0  0  0  0  0  0  0  0  0  0  0
   -0.8975   -2.5148    0.2648 H   0  0  0  0  0  0  0  0  0  0  0  0
   -3.1105   -1.7615    0.9757 H   0  0  0  0  0  0  0  0  0  0  0  0
   -4.0428    2.4218    0.7044 H   0  0  0  0  0  0  0  0  0  0  0  0
   -1.7668    2.8838   -0.1280 H   0  0  0  0  0  0  0  0  0  0  0  0
    3.1676   -0.7793    2.4090 H   0  0  0  0  0  0  0  0  0  0  0  0
    3.9976   -0.9299   -1.8034 H   0  0  0  0  0  0  0  0  0  0  0  0
    1.9159    0.3142   -2.2649 H   0  0  0  0  0  0  0  0  0  0  0  0
  1  2  1  0
  2  3  2  0
  3  4  1  0
  4  5  1  0
  4  6  2  0
  6  7  1  0
  7  8  2  0
  8  9  1  0
  9 10  1  0
 10 11  2  0
 11 12  1  0
 11 13  1  0
 13 14  2  0
 14 15  1  0
 14 16  1  0
 16 17  2  0
  8  2  1  0
 17 10  1  0
  1 18  1  0
  3 19  1  0
  6 20  1  0
  7 21  1  0
 13 22  1  0
 16 23  1  0
 17 24  1  0
M  END
$$$$
