
     RDKit          3D

 13 13  0  0  0  0  0  0  0  0999 V2000
    2.0596   -0.3033   -0.0707 N   0  0  0  0  0  0  0  0  0  0  0  0
    0.6453   -0.0929   -0.0222 C   0  0  0  0  0  0  0  0  0  0  0  0
   -0.2337   -1.1820    0.0319 C   0  0  0  0  0  0  0  0  0  0  0  0
    0.2263   -2.4583    0.0398 F   0  0  0  0  0  0  0  0  0  0  0  0
   -1.6042   -0.9319    0.0780 C   0  0  0  0  0  0  0  0  0  0  0  0
   -2.0603    0.3466    0.0699 N   0  0  0  0  0  0  0  0  0  0  0  0
   -1.1988    1.3955    0.0173 C   0  0  0  0  0  0  0  0  0  0  0  0
   -1.6473    2.5722    0.0109 O   0  0  0  0  0  0  0  0  0  0  0  0
    0.1442    1.1749   -0.0284 N   0  0  0  0  0  0  0  0  0  0  0  0
    2.4637   -1.2662   -0.0669 H   0  0  0  0  0  0  0  0  0  0  0  0
    2.7146    0.5088   -0.1110 H   0  0  0  0  0  0  0  0  0  0  0  0
   -2.3069   -1.7534    0.1203 H   0  0  0  0  0  0  0  0  0  0  0  0
    0.7975    1.9901   -0.0687 H   0  0  0  0  0  0  0  0  0  0  0  0
  1  2  1  0
  2  3  2  0
  3  4  1  0
  3  5  1  0
  5  6  2  0
  6  7  1  0
  7  8  2  0
  7  9  1  0
  9  2  1  0
  1 10  1  0
  1 11  1  0
  5 12  1  0
  9 13  1  0
M  END
$$$$
