
     RDKit          3D

 65 69  0  0  0  0  0  0  0  0999 V2000
    1.7045   -2.6188    0.4789 C   0  0  2  0  0  0  0  0  0  0  0  0
    2.5385   -3.1645   -0.6962 C   0  0  0  0  0  0  0  0  0  0  0  0
    0.2054   -2.5555    0.0874 C   0  0  0  0  0  0  0  0  0  0  0  0
   -0.1440   -1.0785    0.1734 C   0  0  1  0  0  0  0  0  0  0  0  0
   -1.6421   -0.6744    0.2311 C   0  0  2  0  0  0  0  0  0  0  0  0
   -2.4249   -1.2676   -0.9634 C   0  0  0  0  0  0  0  0  0  0  0  0
   -3.9010   -0.8684   -0.9244 C   0  0  0  0  0  0  0  0  0  0  0  0
   -4.0416    0.6294   -0.7985 C   0  0  0  0  0  0  0  0  0  0  0  0
   -4.8245    1.2930   -1.6646 C   0  0  0  0  0  0  0  0  0  0  0  0
   -4.9578    2.7479   -1.5957 C   0  0  0  0  0  0  0  0  0  0  0  0
   -5.7092    3.3541   -2.4038 O   0  0  0  0  0  0  0  0  0  0  0  0
   -4.2014    3.4955   -0.5945 C   0  0  0  0  0  0  0  0  0  0  0  0
   -3.4245    2.8593    0.2828 C   0  0  0  0  0  0  0  0  0  0  0  0
   -3.3095    1.3336    0.3593 C   0  0  1  0  0  0  0  0  0  0  0  0
   -4.0366    0.9236    1.6672 C   0  0  0  0  0  0  0  0  0  0  0  0
   -1.7782    0.8991    0.2870 C   0  0  2  0  0  0  0  0  0  0  0  0
   -1.1245    1.5973   -1.2611 Cl  0  0  0  0  0  0  0  0  0  0  0  0
   -0.8743    1.4927    1.4341 C   0  0  1  0  0  0  0  0  0  0  0  0
   -1.4104    1.2235    2.7016 O   0  0  0  0  0  0  0  0  0  0  0  0
    0.5975    0.9850    1.3668 C   0  0  0  0  0  0  0  0  0  0  0  0
    0.7007   -0.5649    1.3529 C   0  0  1  0  0  0  0  0  0  0  0  0
    0.2072   -1.1403    2.7332 C   0  0  0  0  0  0  0  0  0  0  0  0
    2.1101   -1.1757    0.9727 C   0  0  2  0  0  0  0  0  0  0  0  0
    2.6823   -0.4678   -0.1469 O   0  0  0  0  0  0  0  0  0  0  0  0
    3.4532    0.7057   -0.1027 C   0  0  0  0  0  0  0  0  0  0  0  0
    3.7151    1.2772    0.9898 O   0  0  0  0  0  0  0  0  0  0  0  0
    3.9468    1.2842   -1.3541 C   0  0  0  0  0  0  0  0  0  0  0  0
    3.7202    0.7809   -2.6192 C   0  0  0  0  0  0  0  0  0  0  0  0
    4.3648    1.6429   -3.4801 C   0  0  0  0  0  0  0  0  0  0  0  0
    4.9426    2.6153   -2.6884 C   0  0  0  0  0  0  0  0  0  0  0  0
    4.6754    2.3741   -1.4253 O   0  0  0  0  0  0  0  0  0  0  0  0
    3.1439   -1.2469    2.1120 C   0  0  0  0  0  0  0  0  0  0  0  0
    2.9292   -0.7072    3.1860 O   0  0  0  0  0  0  0  0  0  0  0  0
    4.4990   -1.8639    1.9059 C   0  0  0  0  0  0  0  0  0  0  0  0
    4.5301   -3.5095    2.5834 Cl  0  0  0  0  0  0  0  0  0  0  0  0
    1.8064   -3.3455    1.3156 H   0  0  0  0  0  0  0  0  0  0  0  0
    2.4583   -2.5055   -1.5867 H   0  0  0  0  0  0  0  0  0  0  0  0
    3.6021   -3.2785   -0.4187 H   0  0  0  0  0  0  0  0  0  0  0  0
    2.1672   -4.1727   -0.9790 H   0  0  0  0  0  0  0  0  0  0  0  0
    0.0079   -2.9442   -0.9365 H   0  0  0  0  0  0  0  0  0  0  0  0
   -0.4089   -3.1401    0.8073 H   0  0  0  0  0  0  0  0  0  0  0  0
    0.2570   -0.6348   -0.7676 H   0  0  0  0  0  0  0  0  0  0  0  0
   -2.0941   -1.1255    1.1297 H   0  0  0  0  0  0  0  0  0  0  0  0
   -1.9782   -0.9442   -1.9284 H   0  0  0  0  0  0  0  0  0  0  0  0
   -2.3726   -2.3771   -0.9315 H   0  0  0  0  0  0  0  0  0  0  0  0
   -4.3980   -1.3580   -0.0601 H   0  0  0  0  0  0  0  0  0  0  0  0
   -4.3934   -1.2521   -1.8451 H   0  0  0  0  0  0  0  0  0  0  0  0
   -5.3538    0.7631   -2.4478 H   0  0  0  0  0  0  0  0  0  0  0  0
   -4.2729    4.5758   -0.5645 H   0  0  0  0  0  0  0  0  0  0  0  0
   -2.9156    3.4603    1.0253 H   0  0  0  0  0  0  0  0  0  0  0  0
   -3.8512   -0.1289    1.9527 H   0  0  0  0  0  0  0  0  0  0  0  0
   -5.1356    1.0413    1.5420 H   0  0  0  0  0  0  0  0  0  0  0  0
   -3.7606    1.5748    2.5219 H   0  0  0  0  0  0  0  0  0  0  0  0
   -0.8296    2.5978    1.2993 H   0  0  0  0  0  0  0  0  0  0  0  0
   -0.9900    1.8592    3.3382 H   0  0  0  0  0  0  0  0  0  0  0  0
    1.0443    1.4111    0.4483 H   0  0  0  0  0  0  0  0  0  0  0  0
    1.1769    1.3964    2.2215 H   0  0  0  0  0  0  0  0  0  0  0  0
    0.5632   -0.5145    3.5772 H   0  0  0  0  0  0  0  0  0  0  0  0
    0.5647   -2.1746    2.9116 H   0  0  0  0  0  0  0  0  0  0  0  0
   -0.8884   -1.1770    2.8427 H   0  0  0  0  0  0  0  0  0  0  0  0
    3.1547   -0.1029   -2.8846 H   0  0  0  0  0  0  0  0  0  0  0  0
    4.4085    1.5720   -4.5586 H   0  0  0  0  0  0  0  0  0  0  0  0
    5.5284    3.4540   -3.0397 H   0  0  0  0  0  0  0  0  0  0  0  0
    5.2696   -1.2511    2.4200 H   0  0  0  0  0  0  0  0  0  0  0  0
    4.7722   -1.8888    0.8338 H   0  0  0  0  0  0  0  0  0  0  0  0
  1  2  1  0
  1  3  1  0
  3  4  1  0
  4  5  1  0
  5  6  1  0
  6  7  1  0
  7  8  1  0
  8  9  2  0
  9 10  1  0
 10 11  2  0
 10 12  1  0
 12 13  2  0
 13 14  1  0
 14 15  1  1
 14 16  1  0
 16 17  1  6
 16 18  1  0
 18 19  1  0
 18 20  1  0
 20 21  1  0
 21 22  1  1
 21 23  1  0
 23 24  1  6
 24 25  1  0
 25 26  2  0
 25 27  1  0
 27 28  2  0
 28 29  1  0
 29 30  2  0
 30 31  1  0
 23 32  1  0
 32 33  2  0
 32 34  1  0
 34 35  1  0
 23  1  1  0
 31 27  1  0
 21  4  1  0
 16  5  1  0
 14  8  1  0
  1 36  1  1
  2 37  1  0
  2 38  1  0
  2 39  1  0
  3 40  1  0
  3 41  1  0
  4 42  1  6
  5 43  1  1
  6 44  1  0
  6 45  1  0
  7 46  1  0
  7 47  1  0
  9 48  1  0
 12 49  1  0
 13 50  1  0
 15 51  1  0
 15 52  1  0
 15 53  1  0
 18 54  1  6
 19 55  1  0
 20 56  1  0
 20 57  1  0
 22 58  1  0
 22 59  1  0
 22 60  1  0
 28 61  1  0
 29 62  1  0
 30 63  1  0
 34 64  1  0
 34 65  1  0
M  END
$$$$
