
     RDKit          3D

 38 38  0  0  0  0  0  0  0  0999 V2000
   -0.4167   -0.5643    0.7805 C   0  0  1  0  0  0  0  0  0  0  0  0
    0.4342    0.5857    1.3779 C   0  0  0  0  0  0  0  0  0  0  0  0
    1.1162    1.5083    0.3455 C   0  0  0  0  0  0  0  0  0  0  0  0
    2.0278    0.7975   -0.6708 C   0  0  0  0  0  0  0  0  0  0  0  0
    3.1890    0.0451   -0.0084 C   0  0  0  0  0  0  0  0  0  0  0  0
    4.1249   -0.4988   -1.0524 C   0  0  0  0  0  0  0  0  0  0  0  0
    5.2316    0.2871   -1.4963 N   0  0  0  0  0  0  0  0  0  0  0  0
    3.9007   -1.6513   -1.6008 N   0  0  0  0  0  0  0  0  0  0  0  0
   -0.9084   -1.4744    1.8856 C   0  0  0  0  0  0  0  0  0  0  0  0
   -1.5609   -1.0444    2.8236 O   0  0  0  0  0  0  0  0  0  0  0  0
   -1.5625   -0.0761   -0.1616 C   0  0  1  0  0  0  0  0  0  0  0  0
   -2.3910   -1.2389   -0.7387 C   0  0  0  0  0  0  0  0  0  0  0  0
   -3.7867   -1.1057   -0.1518 C   0  0  0  0  0  0  0  0  0  0  0  0
   -3.9699    0.3749    0.1190 C   0  0  0  0  0  0  0  0  0  0  0  0
   -2.5808    0.8875    0.4976 C   0  0  2  0  0  0  0  0  0  0  0  0
   -2.3913    2.2211    0.0910 O   0  0  0  0  0  0  0  0  0  0  0  0
    0.2600   -1.1931    0.1631 H   0  0  0  0  0  0  0  0  0  0  0  0
    1.2158    0.1543    2.0400 H   0  0  0  0  0  0  0  0  0  0  0  0
   -0.2022    1.2192    2.0320 H   0  0  0  0  0  0  0  0  0  0  0  0
    0.3433    2.0814   -0.2079 H   0  0  0  0  0  0  0  0  0  0  0  0
    1.7213    2.2596    0.8983 H   0  0  0  0  0  0  0  0  0  0  0  0
    2.4459    1.5744   -1.3484 H   0  0  0  0  0  0  0  0  0  0  0  0
    1.4348    0.1046   -1.3043 H   0  0  0  0  0  0  0  0  0  0  0  0
    3.7468    0.7311    0.6652 H   0  0  0  0  0  0  0  0  0  0  0  0
    2.8025   -0.7948    0.6072 H   0  0  0  0  0  0  0  0  0  0  0  0
    5.4077    1.2344   -1.0939 H   0  0  0  0  0  0  0  0  0  0  0  0
    5.8754   -0.0739   -2.2352 H   0  0  0  0  0  0  0  0  0  0  0  0
    3.0866   -2.2454   -1.3252 H   0  0  0  0  0  0  0  0  0  0  0  0
   -0.6603   -2.5306    1.8564 H   0  0  0  0  0  0  0  0  0  0  0  0
   -1.0849    0.4300   -1.0293 H   0  0  0  0  0  0  0  0  0  0  0  0
   -2.4558   -1.1366   -1.8452 H   0  0  0  0  0  0  0  0  0  0  0  0
   -1.9621   -2.2400   -0.5162 H   0  0  0  0  0  0  0  0  0  0  0  0
   -3.8443   -1.6696    0.8056 H   0  0  0  0  0  0  0  0  0  0  0  0
   -4.5610   -1.4895   -0.8509 H   0  0  0  0  0  0  0  0  0  0  0  0
   -4.3375    0.8703   -0.8070 H   0  0  0  0  0  0  0  0  0  0  0  0
   -4.7039    0.5457    0.9364 H   0  0  0  0  0  0  0  0  0  0  0  0
   -2.5029    0.8583    1.6024 H   0  0  0  0  0  0  0  0  0  0  0  0
   -2.4816    2.2570   -0.8973 H   0  0  0  0  0  0  0  0  0  0  0  0
  1  2  1  0
  2  3  1  0
  3  4  1  0
  4  5  1  0
  5  6  1  0
  6  7  1  0
  6  8  2  3
  1  9  1  0
  9 10  2  0
  1 11  1  0
 11 12  1  0
 12 13  1  0
 13 14  1  0
 14 15  1  0
 15 16  1  0
 15 11  1  0
  1 17  1  6
  2 18  1  0
  2 19  1  0
  3 20  1  0
  3 21  1  0
  4 22  1  0
  4 23  1  0
  5 24  1  0
  5 25  1  0
  7 26  1  0
  7 27  1  0
  8 28  1  0
  9 29  1  0
 11 30  1  6
 12 31  1  0
 12 32  1  0
 13 33  1  0
 13 34  1  0
 14 35  1  0
 14 36  1  0
 15 37  1  1
 16 38  1  0
M  END
$$$$
