
     RDKit          3D

 46 47  0  0  0  0  0  0  0  0999 V2000
   -2.7652    2.7086    0.5930 C   0  0  0  0  0  0  0  0  0  0  0  0
   -2.4940    1.3391   -0.0240 C   0  0  0  0  0  0  0  0  0  0  0  0
   -1.9724    0.3561    1.0354 C   0  0  0  0  0  0  0  0  0  0  0  0
   -1.7556   -1.0265    0.5419 N   0  0  0  0  0  0  0  0  0  0  0  0
   -2.9357   -1.9187    0.5660 C   0  0  0  0  0  0  0  0  0  0  0  0
   -3.6590   -1.9908   -0.7868 C   0  0  0  0  0  0  0  0  0  0  0  0
   -2.6861   -2.3122   -1.9202 C   0  0  0  0  0  0  0  0  0  0  0  0
   -1.5354   -1.3072   -1.9447 C   0  0  0  0  0  0  0  0  0  0  0  0
   -0.8140   -1.2781   -0.5800 C   0  0  1  0  0  0  0  0  0  0  0  0
    0.3835   -0.3520   -0.5648 C   0  0  0  0  0  0  0  0  0  0  0  0
    0.5927    0.4391   -1.5260 O   0  0  0  0  0  0  0  0  0  0  0  0
    1.3044   -0.4014    0.5333 N   0  0  0  0  0  0  0  0  0  0  0  0
    2.5660    0.2805    0.4870 C   0  0  0  0  0  0  0  0  0  0  0  0
    3.7436   -0.4475    0.2094 C   0  0  0  0  0  0  0  0  0  0  0  0
    3.6867   -1.9303   -0.0382 C   0  0  0  0  0  0  0  0  0  0  0  0
    4.9772    0.2201    0.1661 C   0  0  0  0  0  0  0  0  0  0  0  0
    5.0441    1.5945    0.3923 C   0  0  0  0  0  0  0  0  0  0  0  0
    3.8850    2.3169    0.6749 C   0  0  0  0  0  0  0  0  0  0  0  0
    2.6395    1.6713    0.7313 C   0  0  0  0  0  0  0  0  0  0  0  0
    1.4099    2.4611    1.0888 C   0  0  0  0  0  0  0  0  0  0  0  0
   -1.8350    3.1243    1.0360 H   0  0  0  0  0  0  0  0  0  0  0  0
   -3.1259    3.4058   -0.1925 H   0  0  0  0  0  0  0  0  0  0  0  0
   -3.5438    2.6303    1.3815 H   0  0  0  0  0  0  0  0  0  0  0  0
   -3.4365    0.9682   -0.4683 H   0  0  0  0  0  0  0  0  0  0  0  0
   -1.7423    1.4756   -0.8257 H   0  0  0  0  0  0  0  0  0  0  0  0
   -2.6769    0.3410    1.8957 H   0  0  0  0  0  0  0  0  0  0  0  0
   -1.0207    0.7424    1.4515 H   0  0  0  0  0  0  0  0  0  0  0  0
   -2.5964   -2.9411    0.8410 H   0  0  0  0  0  0  0  0  0  0  0  0
   -3.6607   -1.6096    1.3497 H   0  0  0  0  0  0  0  0  0  0  0  0
   -4.1859   -1.0401   -0.9996 H   0  0  0  0  0  0  0  0  0  0  0  0
   -4.4327   -2.7872   -0.7397 H   0  0  0  0  0  0  0  0  0  0  0  0
   -3.2266   -2.2786   -2.8907 H   0  0  0  0  0  0  0  0  0  0  0  0
   -2.2836   -3.3407   -1.7872 H   0  0  0  0  0  0  0  0  0  0  0  0
   -0.8169   -1.6111   -2.7373 H   0  0  0  0  0  0  0  0  0  0  0  0
   -1.9298   -0.3072   -2.2159 H   0  0  0  0  0  0  0  0  0  0  0  0
   -0.3927   -2.2974   -0.4297 H   0  0  0  0  0  0  0  0  0  0  0  0
    1.1563   -1.1152    1.2817 H   0  0  0  0  0  0  0  0  0  0  0  0
    4.6769   -2.3340   -0.3389 H   0  0  0  0  0  0  0  0  0  0  0  0
    3.3624   -2.4505    0.8873 H   0  0  0  0  0  0  0  0  0  0  0  0
    2.9639   -2.1495   -0.8524 H   0  0  0  0  0  0  0  0  0  0  0  0
    5.8905   -0.3223   -0.0451 H   0  0  0  0  0  0  0  0  0  0  0  0
    5.9999    2.1013    0.3551 H   0  0  0  0  0  0  0  0  0  0  0  0
    3.9631    3.3813    0.8589 H   0  0  0  0  0  0  0  0  0  0  0  0
    0.6786    2.4279    0.2559 H   0  0  0  0  0  0  0  0  0  0  0  0
    0.9486    2.0371    2.0047 H   0  0  0  0  0  0  0  0  0  0  0  0
    1.6510    3.5267    1.2892 H   0  0  0  0  0  0  0  0  0  0  0  0
  1  2  1  0
  2  3  1  0
  3  4  1  0
  4  5  1  0
  5  6  1  0
  6  7  1  0
  7  8  1  0
  8  9  1  0
  9 10  1  0
 10 11  2  0
 10 12  1  0
 12 13  1  0
 13 14  2  0
 14 15  1  0
 14 16  1  0
 16 17  2  0
 17 18  1  0
 18 19  2  0
 19 20  1  0
  9  4  1  0
 19 13  1  0
  1 21  1  0
  1 22  1  0
  1 23  1  0
  2 24  1  0
  2 25  1  0
  3 26  1  0
  3 27  1  0
  5 28  1  0
  5 29  1  0
  6 30  1  0
  6 31  1  0
  7 32  1  0
  7 33  1  0
  8 34  1  0
  8 35  1  0
  9 36  1  1
 12 37  1  0
 15 38  1  0
 15 39  1  0
 15 40  1  0
 16 41  1  0
 17 42  1  0
 18 43  1  0
 20 44  1  0
 20 45  1  0
 20 46  1  0
M  END
$$$$
