
     RDKit          3D

 41 44  0  0  0  0  0  0  0  0999 V2000
   -3.7395    0.5466   -4.2034 N   0  0  0  0  0  0  0  0  0  0  0  0
   -2.8247    0.4184   -3.5064 C   0  0  0  0  0  0  0  0  0  0  0  0
   -1.6635    0.2559   -2.6210 C   0  0  0  0  0  0  0  0  0  0  0  0
   -2.0041   -0.6135   -1.3885 C   0  0  2  0  0  0  0  0  0  0  0  0
   -3.0294    0.0675   -0.4274 C   0  0  0  0  0  0  0  0  0  0  0  0
   -2.5257    1.3613    0.2405 C   0  0  0  0  0  0  0  0  0  0  0  0
   -2.6734    1.1720    1.7453 C   0  0  0  0  0  0  0  0  0  0  0  0
   -2.7977   -0.3225    1.9689 C   0  0  0  0  0  0  0  0  0  0  0  0
   -3.4678   -0.8572    0.7172 C   0  0  0  0  0  0  0  0  0  0  0  0
   -0.7836   -1.0415   -0.6837 N   0  0  0  0  0  0  0  0  0  0  0  0
    0.3455   -0.3280   -0.4821 C   0  0  0  0  0  0  0  0  0  0  0  0
    1.2228   -1.1051    0.2472 C   0  0  0  0  0  0  0  0  0  0  0  0
    0.5488   -2.2893    0.4741 C   0  0  0  0  0  0  0  0  0  0  0  0
   -0.6632   -2.2293   -0.1088 N   0  0  0  0  0  0  0  0  0  0  0  0
    2.5529   -0.7423    0.7711 C   0  0  0  0  0  0  0  0  0  0  0  0
    3.4038    0.1767    0.1469 C   0  0  0  0  0  0  0  0  0  0  0  0
    3.3379    0.8792   -1.0425 C   0  0  0  0  0  0  0  0  0  0  0  0
    4.5351    1.5863   -1.1182 C   0  0  0  0  0  0  0  0  0  0  0  0
    5.3132    1.3322   -0.0421 N   0  0  0  0  0  0  0  0  0  0  0  0
    4.6129    0.4699    0.7086 C   0  0  0  0  0  0  0  0  0  0  0  0
    5.0369   -0.1100    1.8565 N   0  0  0  0  0  0  0  0  0  0  0  0
    4.2175   -1.0141    2.4674 C   0  0  0  0  0  0  0  0  0  0  0  0
    2.9987   -1.3232    1.9255 N   0  0  0  0  0  0  0  0  0  0  0  0
   -1.3056    1.2612   -2.3189 H   0  0  0  0  0  0  0  0  0  0  0  0
   -0.8559   -0.2349   -3.2050 H   0  0  0  0  0  0  0  0  0  0  0  0
   -2.4938   -1.5344   -1.7821 H   0  0  0  0  0  0  0  0  0  0  0  0
   -3.9389    0.3123   -1.0212 H   0  0  0  0  0  0  0  0  0  0  0  0
   -3.1292    2.2331   -0.0952 H   0  0  0  0  0  0  0  0  0  0  0  0
   -1.4678    1.5806    0.0044 H   0  0  0  0  0  0  0  0  0  0  0  0
   -1.8017    1.5879    2.2960 H   0  0  0  0  0  0  0  0  0  0  0  0
   -3.6006    1.6767    2.0968 H   0  0  0  0  0  0  0  0  0  0  0  0
   -3.3953   -0.5488    2.8784 H   0  0  0  0  0  0  0  0  0  0  0  0
   -1.7852   -0.7699    2.0752 H   0  0  0  0  0  0  0  0  0  0  0  0
   -4.5713   -0.7879    0.8456 H   0  0  0  0  0  0  0  0  0  0  0  0
   -3.2134   -1.9250    0.5472 H   0  0  0  0  0  0  0  0  0  0  0  0
    0.5025    0.6900   -0.8066 H   0  0  0  0  0  0  0  0  0  0  0  0
    0.9144   -3.1415    1.0314 H   0  0  0  0  0  0  0  0  0  0  0  0
    2.5579    0.8610   -1.7895 H   0  0  0  0  0  0  0  0  0  0  0  0
    4.8274    2.2350   -1.9334 H   0  0  0  0  0  0  0  0  0  0  0  0
    6.2690    1.7072    0.1478 H   0  0  0  0  0  0  0  0  0  0  0  0
    4.5344   -1.4925    3.3838 H   0  0  0  0  0  0  0  0  0  0  0  0
  1  2  3  0
  2  3  1  0
  3  4  1  0
  4  5  1  0
  5  6  1  0
  6  7  1  0
  7  8  1  0
  8  9  1  0
  4 10  1  0
 10 11  1  0
 11 12  2  0
 12 13  1  0
 13 14  2  0
 12 15  1  0
 15 16  2  0
 16 17  1  0
 17 18  2  0
 18 19  1  0
 19 20  1  0
 20 21  2  0
 21 22  1  0
 22 23  2  0
  9  5  1  0
 14 10  1  0
 23 15  1  0
 20 16  1  0
  3 24  1  0
  3 25  1  0
  4 26  1  6
  5 27  1  0
  6 28  1  0
  6 29  1  0
  7 30  1  0
  7 31  1  0
  8 32  1  0
  8 33  1  0
  9 34  1  0
  9 35  1  0
 11 36  1  0
 13 37  1  0
 17 38  1  0
 18 39  1  0
 19 40  1  0
 22 41  1  0
M  END
$$$$
