
     RDKit          3D

 38 41  0  0  0  0  0  0  0  0999 V2000
   -1.7085    0.7355   -0.6996 C   0  0  2  0  0  0  0  0  0  0  0  0
   -2.6385    1.8751   -0.2729 C   0  0  0  0  0  0  0  0  0  0  0  0
   -4.0373    1.2402   -0.3539 C   0  0  0  0  0  0  0  0  0  0  0  0
   -3.7674   -0.2306   -0.2679 C   0  0  0  0  0  0  0  0  0  0  0  0
   -4.6443   -1.0807   -0.2809 O   0  0  0  0  0  0  0  0  0  0  0  0
   -2.3163   -0.5289   -0.0927 C   0  0  2  0  0  0  0  0  0  0  0  0
   -2.0476   -0.7045    1.4268 C   0  0  0  0  0  0  0  0  0  0  0  0
   -1.7578   -1.7157   -0.8933 C   0  0  0  0  0  0  0  0  0  0  0  0
   -0.2029   -1.7548   -0.8317 C   0  0  0  0  0  0  0  0  0  0  0  0
    0.5155   -0.4105   -0.5981 C   0  0  0  0  0  0  0  0  0  0  0  0
   -0.2295    0.7915   -0.4455 C   0  0  0  0  0  0  0  0  0  0  0  0
    0.4227    2.0076   -0.2087 C   0  0  0  0  0  0  0  0  0  0  0  0
    1.8066    2.0501   -0.0767 C   0  0  0  0  0  0  0  0  0  0  0  0
    2.5679    0.8828   -0.2035 C   0  0  0  0  0  0  0  0  0  0  0  0
    1.9313   -0.3597   -0.4687 C   0  0  0  0  0  0  0  0  0  0  0  0
    2.7362   -1.5137   -0.5949 C   0  0  0  0  0  0  0  0  0  0  0  0
    4.1241   -1.4343   -0.4601 C   0  0  0  0  0  0  0  0  0  0  0  0
    4.7404   -0.2074   -0.1981 C   0  0  0  0  0  0  0  0  0  0  0  0
    6.1243   -0.1229   -0.0626 O   0  0  0  0  0  0  0  0  0  0  0  0
    3.9644    0.9457   -0.0710 C   0  0  0  0  0  0  0  0  0  0  0  0
   -1.8042    0.6913   -1.8126 H   0  0  0  0  0  0  0  0  0  0  0  0
   -2.4171    2.1945    0.7688 H   0  0  0  0  0  0  0  0  0  0  0  0
   -2.5538    2.7484   -0.9556 H   0  0  0  0  0  0  0  0  0  0  0  0
   -4.6792    1.5762    0.4882 H   0  0  0  0  0  0  0  0  0  0  0  0
   -4.5190    1.4759   -1.3273 H   0  0  0  0  0  0  0  0  0  0  0  0
   -2.4303    0.1602    2.0094 H   0  0  0  0  0  0  0  0  0  0  0  0
   -0.9674   -0.8094    1.6539 H   0  0  0  0  0  0  0  0  0  0  0  0
   -2.5608   -1.6177    1.7975 H   0  0  0  0  0  0  0  0  0  0  0  0
   -2.1736   -2.6709   -0.5039 H   0  0  0  0  0  0  0  0  0  0  0  0
   -2.0778   -1.6368   -1.9566 H   0  0  0  0  0  0  0  0  0  0  0  0
    0.1690   -2.2049   -1.7772 H   0  0  0  0  0  0  0  0  0  0  0  0
    0.0785   -2.4388   -0.0017 H   0  0  0  0  0  0  0  0  0  0  0  0
   -0.1360    2.9310   -0.1326 H   0  0  0  0  0  0  0  0  0  0  0  0
    2.2855    3.0033    0.1147 H   0  0  0  0  0  0  0  0  0  0  0  0
    2.3096   -2.4856   -0.7996 H   0  0  0  0  0  0  0  0  0  0  0  0
    4.7219   -2.3314   -0.5605 H   0  0  0  0  0  0  0  0  0  0  0  0
    6.7161   -0.9410   -0.1493 H   0  0  0  0  0  0  0  0  0  0  0  0
    4.4552    1.8909    0.1311 H   0  0  0  0  0  0  0  0  0  0  0  0
  1  2  1  0
  2  3  1  0
  3  4  1  0
  4  5  2  0
  4  6  1  0
  6  7  1  1
  6  8  1  0
  8  9  1  0
  9 10  1  0
 10 11  2  0
 11 12  1  0
 12 13  2  0
 13 14  1  0
 14 15  2  0
 15 16  1  0
 16 17  2  0
 17 18  1  0
 18 19  1  0
 18 20  2  0
  6  1  1  0
 15 10  1  0
 11  1  1  0
 20 14  1  0
  1 21  1  6
  2 22  1  0
  2 23  1  0
  3 24  1  0
  3 25  1  0
  7 26  1  0
  7 27  1  0
  7 28  1  0
  8 29  1  0
  8 30  1  0
  9 31  1  0
  9 32  1  0
 12 33  1  0
 13 34  1  0
 16 35  1  0
 17 36  1  0
 19 37  1  0
 20 38  1  0
M  END
$$$$
