
     RDKit          3D

 43 45  0  0  0  0  0  0  0  0999 V2000
   -2.8366    2.2662    3.5240 C   0  0  0  0  0  0  0  0  0  0  0  0
   -2.6576    1.7513    2.2085 O   0  0  0  0  0  0  0  0  0  0  0  0
   -1.4322    1.3041    1.6893 C   0  0  0  0  0  0  0  0  0  0  0  0
   -0.2464    1.3312    2.4452 C   0  0  0  0  0  0  0  0  0  0  0  0
    0.9534    0.8757    1.8970 C   0  0  0  0  0  0  0  0  0  0  0  0
    0.9946    0.3788    0.5847 C   0  0  0  0  0  0  0  0  0  0  0  0
   -0.1881    0.3631   -0.1745 C   0  0  0  0  0  0  0  0  0  0  0  0
   -1.4035    0.8194    0.3735 C   0  0  0  0  0  0  0  0  0  0  0  0
   -2.6060    0.8090   -0.3543 O   0  0  0  0  0  0  0  0  0  0  0  0
   -2.7622    0.3325   -1.6940 C   0  0  0  0  0  0  0  0  0  0  0  0
   -4.1478    0.7104   -2.2017 C   0  0  0  0  0  0  0  0  0  0  0  0
   -5.0275   -0.4903   -1.9152 C   0  0  0  0  0  0  0  0  0  0  0  0
   -4.1135   -1.6950   -2.0506 C   0  0  0  0  0  0  0  0  0  0  0  0
   -2.7040   -1.2004   -1.7377 C   0  0  0  0  0  0  0  0  0  0  0  0
    2.2668   -0.1015   -0.0074 C   0  0  0  0  0  0  0  0  0  0  0  0
    2.3841   -0.1634   -1.2624 O   0  0  0  0  0  0  0  0  0  0  0  0
    3.3579   -0.5224    0.8272 N   0  0  0  0  0  0  0  0  0  0  0  0
    4.6668   -0.7853    0.2990 C   0  0  0  0  0  0  0  0  0  0  0  0
    5.2469   -2.0559    0.4604 C   0  0  0  0  0  0  0  0  0  0  0  0
    4.3856   -3.3611    1.2652 Cl  0  0  0  0  0  0  0  0  0  0  0  0
    6.5236   -2.2978   -0.0547 C   0  0  0  0  0  0  0  0  0  0  0  0
    7.2019   -1.3093   -0.6931 N   0  0  0  0  0  0  0  0  0  0  0  0
    6.6745   -0.0673   -0.8495 C   0  0  0  0  0  0  0  0  0  0  0  0
    5.4004    0.2251   -0.3535 C   0  0  0  0  0  0  0  0  0  0  0  0
    4.7887    1.8682   -0.5018 Cl  0  0  0  0  0  0  0  0  0  0  0  0
   -2.2149    3.1753    3.6661 H   0  0  0  0  0  0  0  0  0  0  0  0
   -3.9024    2.5396    3.6641 H   0  0  0  0  0  0  0  0  0  0  0  0
   -2.5655    1.4953    4.2759 H   0  0  0  0  0  0  0  0  0  0  0  0
   -0.2398    1.7083    3.4587 H   0  0  0  0  0  0  0  0  0  0  0  0
    1.8509    0.9345    2.4985 H   0  0  0  0  0  0  0  0  0  0  0  0
   -0.1585   -0.0179   -1.1855 H   0  0  0  0  0  0  0  0  0  0  0  0
   -1.9929    0.7919   -2.3537 H   0  0  0  0  0  0  0  0  0  0  0  0
   -4.1080    0.8825   -3.3005 H   0  0  0  0  0  0  0  0  0  0  0  0
   -4.5396    1.6265   -1.7080 H   0  0  0  0  0  0  0  0  0  0  0  0
   -5.4137   -0.4284   -0.8735 H   0  0  0  0  0  0  0  0  0  0  0  0
   -5.8828   -0.5454   -2.6229 H   0  0  0  0  0  0  0  0  0  0  0  0
   -4.4214   -2.5074   -1.3569 H   0  0  0  0  0  0  0  0  0  0  0  0
   -4.1542   -2.0763   -3.0950 H   0  0  0  0  0  0  0  0  0  0  0  0
   -2.3629   -1.6178   -0.7650 H   0  0  0  0  0  0  0  0  0  0  0  0
   -1.9978   -1.5354   -2.5286 H   0  0  0  0  0  0  0  0  0  0  0  0
    3.1523   -0.8338    1.8027 H   0  0  0  0  0  0  0  0  0  0  0  0
    6.9784   -3.2739    0.0510 H   0  0  0  0  0  0  0  0  0  0  0  0
    7.2530    0.6973   -1.3511 H   0  0  0  0  0  0  0  0  0  0  0  0
  1  2  1  0
  2  3  1  0
  3  4  2  0
  4  5  1  0
  5  6  2  0
  6  7  1  0
  7  8  2  0
  8  9  1  0
  9 10  1  0
 10 11  1  0
 11 12  1  0
 12 13  1  0
 13 14  1  0
  6 15  1  0
 15 16  2  0
 15 17  1  0
 17 18  1  0
 18 19  2  0
 19 20  1  0
 19 21  1  0
 21 22  2  0
 22 23  1  0
 23 24  2  0
 24 25  1  0
  8  3  1  0
 14 10  1  0
 24 18  1  0
  1 26  1  0
  1 27  1  0
  1 28  1  0
  4 29  1  0
  5 30  1  0
  7 31  1  0
 10 32  1  0
 11 33  1  0
 11 34  1  0
 12 35  1  0
 12 36  1  0
 13 37  1  0
 13 38  1  0
 14 39  1  0
 14 40  1  0
 17 41  1  0
 21 42  1  0
 23 43  1  0
M  END
$$$$
