
     RDKit          3D

 26 26  0  0  0  0  0  0  0  0999 V2000
   -0.7060   -0.7206   -0.9207 C   0  0  2  0  0  0  0  0  0  0  0  0
   -1.4037   -2.0009   -1.3826 C   0  0  0  0  0  0  0  0  0  0  0  0
    0.4334   -1.0694   -0.1532 O   0  0  0  0  0  0  0  0  0  0  0  0
    1.2146    0.0828    0.1304 C   0  0  2  0  0  0  0  0  0  0  0  0
    2.3859   -0.3099    0.8203 O   0  0  0  0  0  0  0  0  0  0  0  0
    3.3017   -0.9015   -0.0758 C   0  0  0  0  0  0  0  0  0  0  0  0
    0.4249    1.0489    1.0343 C   0  0  1  0  0  0  0  0  0  0  0  0
    1.1958    2.2000    1.2653 O   0  0  0  0  0  0  0  0  0  0  0  0
   -0.9044    1.4329    0.3575 C   0  0  2  0  0  0  0  0  0  0  0  0
   -1.6887    2.1827    1.2490 O   0  0  0  0  0  0  0  0  0  0  0  0
   -1.6598    0.1658   -0.0916 C   0  0  2  0  0  0  0  0  0  0  0  0
   -2.1196   -0.5484    1.0299 O   0  0  0  0  0  0  0  0  0  0  0  0
   -0.4039   -0.1733   -1.8450 H   0  0  0  0  0  0  0  0  0  0  0  0
   -0.7145   -2.5914   -2.0228 H   0  0  0  0  0  0  0  0  0  0  0  0
   -1.6968   -2.6260   -0.5123 H   0  0  0  0  0  0  0  0  0  0  0  0
   -2.3099   -1.7543   -1.9760 H   0  0  0  0  0  0  0  0  0  0  0  0
    1.4809    0.6285   -0.8106 H   0  0  0  0  0  0  0  0  0  0  0  0
    4.1784   -1.2603    0.5012 H   0  0  0  0  0  0  0  0  0  0  0  0
    2.8585   -1.7810   -0.5937 H   0  0  0  0  0  0  0  0  0  0  0  0
    3.6696   -0.1588   -0.8176 H   0  0  0  0  0  0  0  0  0  0  0  0
    0.2141    0.5312    2.0007 H   0  0  0  0  0  0  0  0  0  0  0  0
    0.8284    2.6339    2.0793 H   0  0  0  0  0  0  0  0  0  0  0  0
   -0.6734    2.0517   -0.5425 H   0  0  0  0  0  0  0  0  0  0  0  0
   -2.4064    2.6072    0.7099 H   0  0  0  0  0  0  0  0  0  0  0  0
   -2.5196    0.4653   -0.7371 H   0  0  0  0  0  0  0  0  0  0  0  0
   -2.9796   -0.1350    1.3036 H   0  0  0  0  0  0  0  0  0  0  0  0
  1  2  1  0
  1  3  1  0
  3  4  1  0
  4  5  1  0
  5  6  1  0
  4  7  1  0
  7  8  1  0
  7  9  1  0
  9 10  1  0
  9 11  1  0
 11 12  1  0
 11  1  1  0
  1 13  1  6
  2 14  1  0
  2 15  1  0
  2 16  1  0
  4 17  1  6
  6 18  1  0
  6 19  1  0
  6 20  1  0
  7 21  1  1
  8 22  1  0
  9 23  1  6
 10 24  1  0
 11 25  1  6
 12 26  1  0
M  END
$$$$
