
     RDKit          3D

 57 59  0  0  0  0  0  0  0  0999 V2000
   -2.6186   -2.9856   -0.5707 C   0  0  0  0  0  0  0  0  0  0  0  0
   -1.3446   -2.2209   -0.1089 C   0  0  0  0  0  0  0  0  0  0  0  0
   -0.9293   -2.7886    1.2622 C   0  0  0  0  0  0  0  0  0  0  0  0
   -0.2496   -2.5425   -1.1638 C   0  0  0  0  0  0  0  0  0  0  0  0
   -1.5968   -0.6864    0.0266 C   0  0  0  0  0  0  0  0  0  0  0  0
   -2.9082   -0.2029    0.2726 C   0  0  0  0  0  0  0  0  0  0  0  0
   -3.2260    1.1771    0.3407 C   0  0  0  0  0  0  0  0  0  0  0  0
   -2.1608    2.0973    0.1956 C   0  0  0  0  0  0  0  0  0  0  0  0
   -2.3832    3.4731    0.2346 O   0  0  0  0  0  0  0  0  0  0  0  0
   -0.8543    1.6424    0.0267 C   0  0  0  0  0  0  0  0  0  0  0  0
   -0.5523    0.2799   -0.0325 C   0  0  0  0  0  0  0  0  0  0  0  0
    0.8328   -0.0861   -0.0799 N   0  0  0  0  0  0  0  0  0  0  0  0
    1.7083    0.3714   -1.1227 C   0  0  0  0  0  0  0  0  0  0  0  0
    1.2219    0.8975   -2.1613 O   0  0  0  0  0  0  0  0  0  0  0  0
    3.1744    0.1807   -1.0236 C   0  0  0  0  0  0  0  0  0  0  0  0
    3.9046   -0.1323   -2.1800 C   0  0  0  0  0  0  0  0  0  0  0  0
    5.2488   -0.3260   -2.1238 N   0  0  0  0  0  0  0  0  0  0  0  0
    5.9391   -0.2179   -0.9538 C   0  0  0  0  0  0  0  0  0  0  0  0
    7.3272   -0.4282   -0.9285 C   0  0  0  0  0  0  0  0  0  0  0  0
    8.0354   -0.3107    0.2696 C   0  0  0  0  0  0  0  0  0  0  0  0
    7.3670    0.0183    1.4503 C   0  0  0  0  0  0  0  0  0  0  0  0
    5.9859    0.2310    1.4410 C   0  0  0  0  0  0  0  0  0  0  0  0
    5.2572    0.1134    0.2412 C   0  0  0  0  0  0  0  0  0  0  0  0
    3.8654    0.3234    0.1967 C   0  0  0  0  0  0  0  0  0  0  0  0
    3.2444    0.6629    1.2419 O   0  0  0  0  0  0  0  0  0  0  0  0
   -4.6842    1.6697    0.5673 C   0  0  0  0  0  0  0  0  0  0  0  0
   -5.1456    2.5277   -0.6336 C   0  0  0  0  0  0  0  0  0  0  0  0
   -5.7083    0.5132    0.7093 C   0  0  0  0  0  0  0  0  0  0  0  0
   -4.7668    2.5006    1.8687 C   0  0  0  0  0  0  0  0  0  0  0  0
   -2.3903   -4.0451   -0.8179 H   0  0  0  0  0  0  0  0  0  0  0  0
   -3.0548   -2.5081   -1.4748 H   0  0  0  0  0  0  0  0  0  0  0  0
   -3.3870   -3.0369    0.2291 H   0  0  0  0  0  0  0  0  0  0  0  0
   -1.7250   -2.6021    2.0156 H   0  0  0  0  0  0  0  0  0  0  0  0
   -0.7595   -3.8853    1.1964 H   0  0  0  0  0  0  0  0  0  0  0  0
    0.0039   -2.3212    1.6328 H   0  0  0  0  0  0  0  0  0  0  0  0
    0.7754   -2.4307   -0.7616 H   0  0  0  0  0  0  0  0  0  0  0  0
   -0.3704   -1.8985   -2.0613 H   0  0  0  0  0  0  0  0  0  0  0  0
   -0.2971   -3.6010   -1.4989 H   0  0  0  0  0  0  0  0  0  0  0  0
   -3.6923   -0.9162    0.4157 H   0  0  0  0  0  0  0  0  0  0  0  0
   -1.6291    4.1430    0.1361 H   0  0  0  0  0  0  0  0  0  0  0  0
   -0.0491    2.3652   -0.0303 H   0  0  0  0  0  0  0  0  0  0  0  0
    1.2133   -0.7001    0.6719 H   0  0  0  0  0  0  0  0  0  0  0  0
    3.3966   -0.2394   -3.1313 H   0  0  0  0  0  0  0  0  0  0  0  0
    5.7512   -0.5665   -3.0087 H   0  0  0  0  0  0  0  0  0  0  0  0
    7.8607   -0.6821   -1.8362 H   0  0  0  0  0  0  0  0  0  0  0  0
    9.1053   -0.4740    0.2827 H   0  0  0  0  0  0  0  0  0  0  0  0
    7.9207    0.1090    2.3759 H   0  0  0  0  0  0  0  0  0  0  0  0
    5.4922    0.4846    2.3711 H   0  0  0  0  0  0  0  0  0  0  0  0
   -6.2180    2.8034   -0.5333 H   0  0  0  0  0  0  0  0  0  0  0  0
   -5.0198    1.9614   -1.5817 H   0  0  0  0  0  0  0  0  0  0  0  0
   -4.5824    3.4770   -0.7178 H   0  0  0  0  0  0  0  0  0  0  0  0
   -6.7360    0.9091    0.8636 H   0  0  0  0  0  0  0  0  0  0  0  0
   -5.4701   -0.1247    1.5880 H   0  0  0  0  0  0  0  0  0  0  0  0
   -5.7338   -0.1115   -0.2100 H   0  0  0  0  0  0  0  0  0  0  0  0
   -4.1999    3.4492    1.8024 H   0  0  0  0  0  0  0  0  0  0  0  0
   -4.3684    1.9146    2.7251 H   0  0  0  0  0  0  0  0  0  0  0  0
   -5.8200    2.7753    2.0956 H   0  0  0  0  0  0  0  0  0  0  0  0
  1  2  1  0
  2  3  1  0
  2  4  1  0
  2  5  1  0
  5  6  2  0
  6  7  1  0
  7  8  2  0
  8  9  1  0
  8 10  1  0
 10 11  2  0
 11 12  1  0
 12 13  1  0
 13 14  2  0
 13 15  1  0
 15 16  2  0
 16 17  1  0
 17 18  1  0
 18 19  2  0
 19 20  1  0
 20 21  2  0
 21 22  1  0
 22 23  2  0
 23 24  1  0
 24 25  2  0
  7 26  1  0
 26 27  1  0
 26 28  1  0
 26 29  1  0
 11  5  1  0
 24 15  1  0
 23 18  1  0
  1 30  1  0
  1 31  1  0
  1 32  1  0
  3 33  1  0
  3 34  1  0
  3 35  1  0
  4 36  1  0
  4 37  1  0
  4 38  1  0
  6 39  1  0
  9 40  1  0
 10 41  1  0
 12 42  1  0
 16 43  1  0
 17 44  1  0
 19 45  1  0
 20 46  1  0
 21 47  1  0
 22 48  1  0
 27 49  1  0
 27 50  1  0
 27 51  1  0
 28 52  1  0
 28 53  1  0
 28 54  1  0
 29 55  1  0
 29 56  1  0
 29 57  1  0
M  END
$$$$
