
     RDKit          3D

 55 57  0  0  0  0  0  0  0  0999 V2000
   -4.4513   -0.7675   -1.3220 C   0  0  0  0  0  0  0  0  0  0  0  0
   -3.0630   -0.0809   -1.3378 C   0  0  0  0  0  0  0  0  0  0  0  0
   -2.5264   -0.0809   -2.7877 C   0  0  0  0  0  0  0  0  0  0  0  0
   -3.2760    1.3735   -0.8492 C   0  0  0  0  0  0  0  0  0  0  0  0
   -1.9614    2.0639   -0.5063 C   0  0  0  0  0  0  0  0  0  0  0  0
   -1.2148    1.3612    0.6555 C   0  0  0  0  0  0  0  0  0  0  0  0
    0.2378    1.9019    0.6462 C   0  0  0  0  0  0  0  0  0  0  0  0
   -1.8728    1.7297    2.0047 C   0  0  0  0  0  0  0  0  0  0  0  0
   -1.2246   -0.1672    0.4938 C   0  0  0  0  0  0  0  0  0  0  0  0
   -2.0737   -0.8358   -0.4380 C   0  0  0  0  0  0  0  0  0  0  0  0
   -1.9398   -2.2338   -0.5898 C   0  0  0  0  0  0  0  0  0  0  0  0
   -1.0613   -2.9684    0.2016 C   0  0  0  0  0  0  0  0  0  0  0  0
   -0.2997   -2.3359    1.1849 C   0  0  0  0  0  0  0  0  0  0  0  0
   -0.3978   -0.9457    1.3329 C   0  0  0  0  0  0  0  0  0  0  0  0
    0.7073   -3.1250    1.9931 C   0  0  2  0  0  0  0  0  0  0  0  0
    0.6350   -2.7767    3.3510 O   0  0  0  0  0  0  0  0  0  0  0  0
    2.0826   -2.8330    1.4662 C   0  0  0  0  0  0  0  0  0  0  0  0
    2.6477   -3.6576    0.6982 O   0  0  0  0  0  0  0  0  0  0  0  0
    2.7131   -1.5791    1.7560 N   0  0  0  0  0  0  0  0  0  0  0  0
    3.1422   -0.6586    0.7351 C   0  0  0  0  0  0  0  0  0  0  0  0
    3.8999    0.4692    1.0914 C   0  0  0  0  0  0  0  0  0  0  0  0
    4.2767    0.6638    2.3804 F   0  0  0  0  0  0  0  0  0  0  0  0
    4.2733    1.4074    0.1241 C   0  0  0  0  0  0  0  0  0  0  0  0
    3.8915    1.2418   -1.2172 C   0  0  0  0  0  0  0  0  0  0  0  0
    3.1293    0.1169   -1.5737 C   0  0  0  0  0  0  0  0  0  0  0  0
    2.7555   -0.8215   -0.6087 C   0  0  0  0  0  0  0  0  0  0  0  0
    4.2805    2.2434   -2.2342 C   0  0  0  0  0  0  0  0  0  0  0  0
    5.0324    3.3576   -1.8705 O   0  0  0  0  0  0  0  0  0  0  0  0
    3.9350    2.0985   -3.4382 O   0  0  0  0  0  0  0  0  0  0  0  0
   -4.8017   -0.9121   -0.2769 H   0  0  0  0  0  0  0  0  0  0  0  0
   -5.2009   -0.1451   -1.8578 H   0  0  0  0  0  0  0  0  0  0  0  0
   -4.4363   -1.7558   -1.8258 H   0  0  0  0  0  0  0  0  0  0  0  0
   -3.1787    0.5269   -3.4511 H   0  0  0  0  0  0  0  0  0  0  0  0
   -1.4947    0.3254   -2.8352 H   0  0  0  0  0  0  0  0  0  0  0  0
   -2.4948   -1.1131   -3.1975 H   0  0  0  0  0  0  0  0  0  0  0  0
   -3.9355    1.3895    0.0452 H   0  0  0  0  0  0  0  0  0  0  0  0
   -3.7990    1.9684   -1.6306 H   0  0  0  0  0  0  0  0  0  0  0  0
   -2.1726    3.1239   -0.2423 H   0  0  0  0  0  0  0  0  0  0  0  0
   -1.3238    2.0966   -1.4158 H   0  0  0  0  0  0  0  0  0  0  0  0
    0.7812    1.5385   -0.2524 H   0  0  0  0  0  0  0  0  0  0  0  0
    0.8083    1.5955    1.5469 H   0  0  0  0  0  0  0  0  0  0  0  0
    0.2406    3.0135    0.6272 H   0  0  0  0  0  0  0  0  0  0  0  0
   -2.8935    1.3010    2.0835 H   0  0  0  0  0  0  0  0  0  0  0  0
   -1.9414    2.8325    2.1234 H   0  0  0  0  0  0  0  0  0  0  0  0
   -1.2785    1.3351    2.8563 H   0  0  0  0  0  0  0  0  0  0  0  0
   -2.5047   -2.7691   -1.3396 H   0  0  0  0  0  0  0  0  0  0  0  0
   -0.9746   -4.0361    0.0419 H   0  0  0  0  0  0  0  0  0  0  0  0
    0.2006   -0.4700    2.0967 H   0  0  0  0  0  0  0  0  0  0  0  0
    0.5149   -4.2192    1.8926 H   0  0  0  0  0  0  0  0  0  0  0  0
   -0.2149   -3.1561    3.6975 H   0  0  0  0  0  0  0  0  0  0  0  0
    2.7114   -1.2573    2.7499 H   0  0  0  0  0  0  0  0  0  0  0  0
    4.8573    2.2666    0.4291 H   0  0  0  0  0  0  0  0  0  0  0  0
    2.8101   -0.0331   -2.5975 H   0  0  0  0  0  0  0  0  0  0  0  0
    2.1406   -1.6570   -0.9148 H   0  0  0  0  0  0  0  0  0  0  0  0
    5.3036    4.0496   -2.5589 H   0  0  0  0  0  0  0  0  0  0  0  0
  1  2  1  0
  2  3  1  0
  2  4  1  0
  4  5  1  0
  5  6  1  0
  6  7  1  0
  6  8  1  0
  6  9  1  0
  9 10  2  0
 10 11  1  0
 11 12  2  0
 12 13  1  0
 13 14  2  0
 13 15  1  0
 15 16  1  0
 15 17  1  0
 17 18  2  0
 17 19  1  0
 19 20  1  0
 20 21  2  0
 21 22  1  0
 21 23  1  0
 23 24  2  0
 24 25  1  0
 25 26  2  0
 24 27  1  0
 27 28  1  0
 27 29  2  0
 10  2  1  0
 26 20  1  0
 14  9  1  0
  1 30  1  0
  1 31  1  0
  1 32  1  0
  3 33  1  0
  3 34  1  0
  3 35  1  0
  4 36  1  0
  4 37  1  0
  5 38  1  0
  5 39  1  0
  7 40  1  0
  7 41  1  0
  7 42  1  0
  8 43  1  0
  8 44  1  0
  8 45  1  0
 11 46  1  0
 12 47  1  0
 14 48  1  0
 15 49  1  1
 16 50  1  0
 19 51  1  0
 23 52  1  0
 25 53  1  0
 26 54  1  0
 28 55  1  0
M  END
$$$$
