
     RDKit          3D

 75 78  0  0  0  0  0  0  0  0999 V2000
   -1.9609    1.7402    0.8550 C   0  0  2  0  0  0  0  0  0  0  0  0
   -1.6391    3.2200    1.0291 C   0  0  0  0  0  0  0  0  0  0  0  0
   -0.2093    3.2443    1.6010 C   0  0  0  0  0  0  0  0  0  0  0  0
    0.3071    1.7727    1.6065 C   0  0  2  0  0  0  0  0  0  0  0  0
    0.0496    1.2740    2.9054 O   0  0  0  0  0  0  0  0  0  0  0  0
    1.8120    1.6846    1.2933 C   0  0  0  0  0  0  0  0  0  0  0  0
    2.3398    2.5335    0.5877 O   0  0  0  0  0  0  0  0  0  0  0  0
    2.6722    0.5709    1.8439 C   0  0  0  0  0  0  0  0  0  0  0  0
    3.9379    0.5157    1.1866 O   0  0  0  0  0  0  0  0  0  0  0  0
    4.1107   -0.0057   -0.1004 C   0  0  0  0  0  0  0  0  0  0  0  0
    3.1370   -0.4959   -0.7345 O   0  0  0  0  0  0  0  0  0  0  0  0
    5.4723    0.0067   -0.7193 C   0  0  0  0  0  0  0  0  0  0  0  0
    6.3971   -0.8269    0.0775 N   0  0  0  0  0  0  0  0  0  0  0  0
    7.7992   -0.3485   -0.0156 C   0  0  0  0  0  0  0  0  0  0  0  0
    8.4260   -0.4934   -1.4094 C   0  0  0  0  0  0  0  0  0  0  0  0
    6.2263   -2.2667   -0.2291 C   0  0  0  0  0  0  0  0  0  0  0  0
    6.9098   -3.1550    0.8098 C   0  0  0  0  0  0  0  0  0  0  0  0
   -0.6111    1.0840    0.5351 C   0  0  2  0  0  0  0  0  0  0  0  0
   -0.0908    1.4361   -0.9014 C   0  0  0  0  0  0  0  0  0  0  0  0
   -0.7938   -0.4530    0.6706 C   0  0  0  0  0  0  0  0  0  0  0  0
   -1.9304   -1.0064   -0.2338 C   0  0  2  0  0  0  0  0  0  0  0  0
   -1.5147   -1.0366   -1.5727 O   0  0  0  0  0  0  0  0  0  0  0  0
   -3.2783   -0.2164   -0.0649 C   0  0  1  0  0  0  0  0  0  0  0  0
   -3.0939    1.3394   -0.1206 C   0  0  1  0  0  0  0  0  0  0  0  0
   -4.4070    2.0364    0.2864 C   0  0  0  0  0  0  0  0  0  0  0  0
   -5.5598    1.6292   -0.6243 C   0  0  0  0  0  0  0  0  0  0  0  0
   -5.7171    0.1284   -0.6562 C   0  0  0  0  0  0  0  0  0  0  0  0
   -6.9594   -0.3896   -0.6340 C   0  0  0  0  0  0  0  0  0  0  0  0
   -7.2086   -1.8239   -0.8265 C   0  0  0  0  0  0  0  0  0  0  0  0
   -8.3853   -2.2676   -0.7570 O   0  0  0  0  0  0  0  0  0  0  0  0
   -6.0864   -2.7466   -1.1751 C   0  0  0  0  0  0  0  0  0  0  0  0
   -4.7706   -2.2280   -0.5900 C   0  0  0  0  0  0  0  0  0  0  0  0
   -4.4821   -0.7349   -0.9542 C   0  0  2  0  0  0  0  0  0  0  0  0
   -4.1952   -0.6255   -2.4754 C   0  0  0  0  0  0  0  0  0  0  0  0
   -2.2871    1.3881    1.8646 H   0  0  0  0  0  0  0  0  0  0  0  0
   -2.3546    3.7051    1.7284 H   0  0  0  0  0  0  0  0  0  0  0  0
   -1.6766    3.7441    0.0487 H   0  0  0  0  0  0  0  0  0  0  0  0
    0.4087    3.9187    0.9708 H   0  0  0  0  0  0  0  0  0  0  0  0
   -0.2113    3.6695    2.6292 H   0  0  0  0  0  0  0  0  0  0  0  0
    0.3718    0.3413    2.9740 H   0  0  0  0  0  0  0  0  0  0  0  0
    2.1603   -0.4093    1.7409 H   0  0  0  0  0  0  0  0  0  0  0  0
    2.8461    0.7612    2.9233 H   0  0  0  0  0  0  0  0  0  0  0  0
    5.8065    1.0674   -0.7419 H   0  0  0  0  0  0  0  0  0  0  0  0
    5.4205   -0.3478   -1.7739 H   0  0  0  0  0  0  0  0  0  0  0  0
    7.8426    0.7221    0.2823 H   0  0  0  0  0  0  0  0  0  0  0  0
    8.4327   -0.8786    0.7253 H   0  0  0  0  0  0  0  0  0  0  0  0
    9.4094    0.0221   -1.4204 H   0  0  0  0  0  0  0  0  0  0  0  0
    8.6057   -1.5599   -1.6549 H   0  0  0  0  0  0  0  0  0  0  0  0
    7.7870   -0.0306   -2.1889 H   0  0  0  0  0  0  0  0  0  0  0  0
    5.1447   -2.5257   -0.2063 H   0  0  0  0  0  0  0  0  0  0  0  0
    6.5917   -2.5162   -1.2476 H   0  0  0  0  0  0  0  0  0  0  0  0
    6.6482   -2.8184    1.8354 H   0  0  0  0  0  0  0  0  0  0  0  0
    8.0116   -3.1365    0.6796 H   0  0  0  0  0  0  0  0  0  0  0  0
    6.5701   -4.2046    0.6818 H   0  0  0  0  0  0  0  0  0  0  0  0
    0.8253    0.8533   -1.1298 H   0  0  0  0  0  0  0  0  0  0  0  0
    0.1621    2.5113   -1.0009 H   0  0  0  0  0  0  0  0  0  0  0  0
   -0.8136    1.2227   -1.7061 H   0  0  0  0  0  0  0  0  0  0  0  0
    0.1605   -0.9728    0.4383 H   0  0  0  0  0  0  0  0  0  0  0  0
   -1.0646   -0.7214    1.7132 H   0  0  0  0  0  0  0  0  0  0  0  0
   -2.1098   -2.0530    0.1034 H   0  0  0  0  0  0  0  0  0  0  0  0
   -0.8568   -1.7755   -1.6578 H   0  0  0  0  0  0  0  0  0  0  0  0
   -3.5842   -0.4269    0.9873 H   0  0  0  0  0  0  0  0  0  0  0  0
   -2.8469    1.6738   -1.1461 H   0  0  0  0  0  0  0  0  0  0  0  0
   -4.2865    3.1391    0.2178 H   0  0  0  0  0  0  0  0  0  0  0  0
   -4.6674    1.7864    1.3392 H   0  0  0  0  0  0  0  0  0  0  0  0
   -6.4837    2.1285   -0.2571 H   0  0  0  0  0  0  0  0  0  0  0  0
   -5.3692    1.9965   -1.6558 H   0  0  0  0  0  0  0  0  0  0  0  0
   -7.8167    0.2562   -0.4830 H   0  0  0  0  0  0  0  0  0  0  0  0
   -6.2927   -3.7597   -0.7666 H   0  0  0  0  0  0  0  0  0  0  0  0
   -6.0108   -2.8305   -2.2798 H   0  0  0  0  0  0  0  0  0  0  0  0
   -4.8199   -2.3438    0.5159 H   0  0  0  0  0  0  0  0  0  0  0  0
   -3.9530   -2.8863   -0.9540 H   0  0  0  0  0  0  0  0  0  0  0  0
   -3.5378   -1.4450   -2.8307 H   0  0  0  0  0  0  0  0  0  0  0  0
   -3.7285    0.3441   -2.7388 H   0  0  0  0  0  0  0  0  0  0  0  0
   -5.1371   -0.7046   -3.0598 H   0  0  0  0  0  0  0  0  0  0  0  0
  1  2  1  0
  2  3  1  0
  3  4  1  0
  4  5  1  1
  4  6  1  0
  6  7  2  0
  6  8  1  0
  8  9  1  0
  9 10  1  0
 10 11  2  0
 10 12  1  0
 12 13  1  0
 13 14  1  0
 14 15  1  0
 13 16  1  0
 16 17  1  0
  4 18  1  0
 18 19  1  6
 18 20  1  0
 20 21  1  0
 21 22  1  0
 21 23  1  0
 23 24  1  0
 24 25  1  0
 25 26  1  0
 26 27  1  0
 27 28  2  0
 28 29  1  0
 29 30  2  0
 29 31  1  0
 31 32  1  0
 32 33  1  0
 33 34  1  6
 18  1  1  0
 33 23  1  0
 24  1  1  0
 33 27  1  0
  1 35  1  1
  2 36  1  0
  2 37  1  0
  3 38  1  0
  3 39  1  0
  5 40  1  0
  8 41  1  0
  8 42  1  0
 12 43  1  0
 12 44  1  0
 14 45  1  0
 14 46  1  0
 15 47  1  0
 15 48  1  0
 15 49  1  0
 16 50  1  0
 16 51  1  0
 17 52  1  0
 17 53  1  0
 17 54  1  0
 19 55  1  0
 19 56  1  0
 19 57  1  0
 20 58  1  0
 20 59  1  0
 21 60  1  1
 22 61  1  0
 23 62  1  1
 24 63  1  6
 25 64  1  0
 25 65  1  0
 26 66  1  0
 26 67  1  0
 28 68  1  0
 31 69  1  0
 31 70  1  0
 32 71  1  0
 32 72  1  0
 34 73  1  0
 34 74  1  0
 34 75  1  0
M  END
$$$$
