
     RDKit          3D

 62 65  0  0  0  0  0  0  0  0999 V2000
    4.1855    2.1534   -2.2746 C   0  0  0  0  0  0  0  0  0  0  0  0
    3.0173    1.3458   -2.8357 C   0  0  0  0  0  0  0  0  0  0  0  0
    3.1872   -0.1639   -2.6122 C   0  0  0  0  0  0  0  0  0  0  0  0
    3.1617   -0.5027   -1.1775 N   0  0  0  0  0  0  0  0  0  0  0  0
    1.9769   -0.5771   -0.5120 C   0  0  0  0  0  0  0  0  0  0  0  0
    1.9055   -0.8462    0.8070 C   0  0  0  0  0  0  0  0  0  0  0  0
    0.6259   -0.8368    1.1993 N   0  0  0  0  0  0  0  0  0  0  0  0
   -0.0591   -0.5527    0.0606 C   0  0  0  0  0  0  0  0  0  0  0  0
    0.7471   -0.3832   -1.0239 N   0  0  0  0  0  0  0  0  0  0  0  0
   -1.5682   -0.4262    0.0084 C   0  0  0  0  0  0  0  0  0  0  0  0
   -2.0682   -0.1036   -1.4286 C   0  0  0  0  0  0  0  0  0  0  0  0
   -3.6127    0.0306   -1.4647 C   0  0  0  0  0  0  0  0  0  0  0  0
   -4.2212   -0.2016   -0.0533 C   0  0  0  0  0  0  0  0  0  0  0  0
   -5.7760   -0.1407   -0.0626 C   0  0  0  0  0  0  0  0  0  0  0  0
   -6.3815    1.2009   -0.5098 C   0  0  0  0  0  0  0  0  0  0  0  0
   -7.8758    1.1307   -0.4708 C   0  0  0  0  0  0  0  0  0  0  0  0
   -8.5536    1.4433    0.7034 O   0  0  0  0  0  0  0  0  0  0  0  0
   -8.5174    0.7499   -1.4864 O   0  0  0  0  0  0  0  0  0  0  0  0
   -3.5946    0.8406    0.9168 C   0  0  0  0  0  0  0  0  0  0  0  0
   -2.0497    0.7050    0.9548 C   0  0  0  0  0  0  0  0  0  0  0  0
   -3.7803   -1.6174    0.4222 C   0  0  0  0  0  0  0  0  0  0  0  0
   -2.2373   -1.7487    0.4561 C   0  0  0  0  0  0  0  0  0  0  0  0
    3.0528   -1.0643    1.5473 C   0  0  0  0  0  0  0  0  0  0  0  0
    2.9746   -1.2964    2.7851 O   0  0  0  0  0  0  0  0  0  0  0  0
    4.2666   -1.0134    0.8988 N   0  0  0  0  0  0  0  0  0  0  0  0
    5.5147   -1.2090    1.6617 C   0  0  0  0  0  0  0  0  0  0  0  0
    6.0264    0.1335    2.1938 C   0  0  0  0  0  0  0  0  0  0  0  0
    7.3194   -0.0405    2.9845 C   0  0  0  0  0  0  0  0  0  0  0  0
    4.3193   -0.7179   -0.4557 C   0  0  0  0  0  0  0  0  0  0  0  0
    5.4393   -0.6361   -1.0348 O   0  0  0  0  0  0  0  0  0  0  0  0
    4.0533    3.2247   -2.5349 H   0  0  0  0  0  0  0  0  0  0  0  0
    5.1451    1.7993   -2.7077 H   0  0  0  0  0  0  0  0  0  0  0  0
    4.2235    2.0659   -1.1684 H   0  0  0  0  0  0  0  0  0  0  0  0
    2.0713    1.6950   -2.3689 H   0  0  0  0  0  0  0  0  0  0  0  0
    2.9462    1.5371   -3.9282 H   0  0  0  0  0  0  0  0  0  0  0  0
    2.3635   -0.6974   -3.1357 H   0  0  0  0  0  0  0  0  0  0  0  0
    4.1264   -0.5129   -3.0941 H   0  0  0  0  0  0  0  0  0  0  0  0
    0.2487   -1.0034    2.1587 H   0  0  0  0  0  0  0  0  0  0  0  0
   -1.6072    0.8452   -1.7841 H   0  0  0  0  0  0  0  0  0  0  0  0
   -1.7529   -0.9086   -2.1294 H   0  0  0  0  0  0  0  0  0  0  0  0
   -3.8662    1.0468   -1.8341 H   0  0  0  0  0  0  0  0  0  0  0  0
   -4.0357   -0.7030   -2.1861 H   0  0  0  0  0  0  0  0  0  0  0  0
   -6.1607   -0.9398   -0.7354 H   0  0  0  0  0  0  0  0  0  0  0  0
   -6.1483   -0.3682    0.9615 H   0  0  0  0  0  0  0  0  0  0  0  0
   -6.0570    2.0198    0.1640 H   0  0  0  0  0  0  0  0  0  0  0  0
   -6.0666    1.4482   -1.5446 H   0  0  0  0  0  0  0  0  0  0  0  0
   -9.5638    1.3847    0.7513 H   0  0  0  0  0  0  0  0  0  0  0  0
   -4.0080    0.7018    1.9403 H   0  0  0  0  0  0  0  0  0  0  0  0
   -3.8458    1.8724    0.5920 H   0  0  0  0  0  0  0  0  0  0  0  0
   -1.7284    0.4950    1.9988 H   0  0  0  0  0  0  0  0  0  0  0  0
   -1.5821    1.6693    0.6544 H   0  0  0  0  0  0  0  0  0  0  0  0
   -4.1982   -2.3930   -0.2577 H   0  0  0  0  0  0  0  0  0  0  0  0
   -4.1871   -1.8187    1.4383 H   0  0  0  0  0  0  0  0  0  0  0  0
   -1.9154   -2.0133    1.4875 H   0  0  0  0  0  0  0  0  0  0  0  0
   -1.9178   -2.5789   -0.2125 H   0  0  0  0  0  0  0  0  0  0  0  0
    6.2922   -1.6835    1.0231 H   0  0  0  0  0  0  0  0  0  0  0  0
    5.3501   -1.9117    2.5084 H   0  0  0  0  0  0  0  0  0  0  0  0
    5.2568    0.5894    2.8537 H   0  0  0  0  0  0  0  0  0  0  0  0
    6.2122    0.8249    1.3436 H   0  0  0  0  0  0  0  0  0  0  0  0
    8.1122   -0.4724    2.3372 H   0  0  0  0  0  0  0  0  0  0  0  0
    7.1518   -0.7090    3.8558 H   0  0  0  0  0  0  0  0  0  0  0  0
    7.6635    0.9476    3.3561 H   0  0  0  0  0  0  0  0  0  0  0  0
  1  2  1  0
  2  3  1  0
  3  4  1  0
  4  5  1  0
  5  6  2  0
  6  7  1  0
  7  8  1  0
  8  9  2  0
  8 10  1  0
 10 11  1  0
 11 12  1  0
 12 13  1  0
 13 14  1  0
 14 15  1  0
 15 16  1  0
 16 17  1  0
 16 18  2  0
 13 19  1  0
 19 20  1  0
 13 21  1  0
 21 22  1  0
  6 23  1  0
 23 24  2  0
 23 25  1  0
 25 26  1  0
 26 27  1  0
 27 28  1  0
 25 29  1  0
 29 30  2  0
 29  4  1  0
  9  5  1  0
 20 10  1  0
 22 10  1  0
  1 31  1  0
  1 32  1  0
  1 33  1  0
  2 34  1  0
  2 35  1  0
  3 36  1  0
  3 37  1  0
  7 38  1  0
 11 39  1  0
 11 40  1  0
 12 41  1  0
 12 42  1  0
 14 43  1  0
 14 44  1  0
 15 45  1  0
 15 46  1  0
 17 47  1  0
 19 48  1  0
 19 49  1  0
 20 50  1  0
 20 51  1  0
 21 52  1  0
 21 53  1  0
 22 54  1  0
 22 55  1  0
 26 56  1  0
 26 57  1  0
 27 58  1  0
 27 59  1  0
 28 60  1  0
 28 61  1  0
 28 62  1  0
M  END
$$$$
