
     RDKit          3D

 51 54  0  0  0  0  0  0  0  0999 V2000
   -5.5418    4.5668    0.4218 O   0  0  0  0  0  0  0  0  0  0  0  0
   -4.3230    3.8922    0.4326 C   0  0  0  0  0  0  0  0  0  0  0  0
   -3.4000    4.1523    1.4494 C   0  0  0  0  0  0  0  0  0  0  0  0
   -2.1673    3.4845    1.4774 C   0  0  0  0  0  0  0  0  0  0  0  0
   -1.2611    3.7380    2.5069 O   0  0  0  0  0  0  0  0  0  0  0  0
   -1.8492    2.5578    0.4664 C   0  0  0  0  0  0  0  0  0  0  0  0
   -0.5448    1.7997    0.4992 C   0  0  0  0  0  0  0  0  0  0  0  0
   -0.1538    1.2812   -0.8961 C   0  0  1  0  0  0  0  0  0  0  0  0
    0.9755    0.4113   -0.8057 O   0  0  0  0  0  0  0  0  0  0  0  0
    2.2834    0.8453   -0.5618 C   0  0  0  0  0  0  0  0  0  0  0  0
    2.5407    2.0788   -0.4925 O   0  0  0  0  0  0  0  0  0  0  0  0
    3.3625   -0.1525   -0.3938 C   0  0  0  0  0  0  0  0  0  0  0  0
    3.0678   -1.5256   -0.4407 C   0  0  0  0  0  0  0  0  0  0  0  0
    4.0824   -2.4784   -0.2809 C   0  0  0  0  0  0  0  0  0  0  0  0
    3.7828   -3.8391   -0.3283 O   0  0  0  0  0  0  0  0  0  0  0  0
    5.4045   -2.0668   -0.0721 C   0  0  0  0  0  0  0  0  0  0  0  0
    6.4014   -3.0302    0.0845 O   0  0  0  0  0  0  0  0  0  0  0  0
    5.7105   -0.6964   -0.0226 C   0  0  0  0  0  0  0  0  0  0  0  0
    7.0255   -0.2826    0.1856 O   0  0  0  0  0  0  0  0  0  0  0  0
    4.6915    0.2534   -0.1827 C   0  0  0  0  0  0  0  0  0  0  0  0
   -1.3317    0.5360   -1.5619 C   0  0  2  0  0  0  0  0  0  0  0  0
   -2.5182    1.3364   -1.5405 O   0  0  0  0  0  0  0  0  0  0  0  0
   -2.7930    2.2813   -0.5431 C   0  0  0  0  0  0  0  0  0  0  0  0
   -4.0177    2.9550   -0.5615 C   0  0  0  0  0  0  0  0  0  0  0  0
   -1.5766   -0.8318   -0.9457 C   0  0  0  0  0  0  0  0  0  0  0  0
   -2.4490   -1.0091    0.1431 C   0  0  0  0  0  0  0  0  0  0  0  0
   -2.6155   -2.2723    0.7270 C   0  0  0  0  0  0  0  0  0  0  0  0
   -3.4864   -2.4341    1.8037 O   0  0  0  0  0  0  0  0  0  0  0  0
   -1.9010   -3.3751    0.2295 C   0  0  0  0  0  0  0  0  0  0  0  0
   -2.0533   -4.6390    0.8011 O   0  0  0  0  0  0  0  0  0  0  0  0
   -1.0218   -3.2042   -0.8524 C   0  0  0  0  0  0  0  0  0  0  0  0
   -0.2900   -4.2761   -1.3629 O   0  0  0  0  0  0  0  0  0  0  0  0
   -0.8661   -1.9420   -1.4324 C   0  0  0  0  0  0  0  0  0  0  0  0
   -6.2330    4.4001   -0.3003 H   0  0  0  0  0  0  0  0  0  0  0  0
   -3.6440    4.8713    2.2214 H   0  0  0  0  0  0  0  0  0  0  0  0
   -1.4681    4.3998    3.2459 H   0  0  0  0  0  0  0  0  0  0  0  0
    0.2652    2.4626    0.8713 H   0  0  0  0  0  0  0  0  0  0  0  0
   -0.6397    0.9490    1.2074 H   0  0  0  0  0  0  0  0  0  0  0  0
    0.1034    2.1512   -1.5423 H   0  0  0  0  0  0  0  0  0  0  0  0
    2.0514   -1.8632   -0.5987 H   0  0  0  0  0  0  0  0  0  0  0  0
    2.8362   -4.1691   -0.4775 H   0  0  0  0  0  0  0  0  0  0  0  0
    7.3715   -2.7821    0.2377 H   0  0  0  0  0  0  0  0  0  0  0  0
    7.2737    0.6991    0.2257 H   0  0  0  0  0  0  0  0  0  0  0  0
    4.9416    1.3064   -0.1423 H   0  0  0  0  0  0  0  0  0  0  0  0
   -1.0686    0.3857   -2.6321 H   0  0  0  0  0  0  0  0  0  0  0  0
   -4.7336    2.7439   -1.3459 H   0  0  0  0  0  0  0  0  0  0  0  0
   -2.9988   -0.1722    0.5494 H   0  0  0  0  0  0  0  0  0  0  0  0
   -4.0124   -1.6556    2.1834 H   0  0  0  0  0  0  0  0  0  0  0  0
   -2.6754   -4.8067    1.5828 H   0  0  0  0  0  0  0  0  0  0  0  0
   -0.3610   -5.2099   -0.9769 H   0  0  0  0  0  0  0  0  0  0  0  0
   -0.1759   -1.8250   -2.2594 H   0  0  0  0  0  0  0  0  0  0  0  0
  1  2  1  0
  2  3  2  0
  3  4  1  0
  4  5  1  0
  4  6  2  0
  6  7  1  0
  7  8  1  0
  8  9  1  0
  9 10  1  0
 10 11  2  0
 10 12  1  0
 12 13  2  0
 13 14  1  0
 14 15  1  0
 14 16  2  0
 16 17  1  0
 16 18  1  0
 18 19  1  0
 18 20  2  0
  8 21  1  0
 21 22  1  0
 22 23  1  0
 23 24  2  0
 21 25  1  0
 25 26  2  0
 26 27  1  0
 27 28  1  0
 27 29  2  0
 29 30  1  0
 29 31  1  0
 31 32  1  0
 31 33  2  0
 24  2  1  0
 33 25  1  0
 23  6  1  0
 20 12  1  0
  1 34  1  0
  3 35  1  0
  5 36  1  0
  7 37  1  0
  7 38  1  0
  8 39  1  6
 13 40  1  0
 15 41  1  0
 17 42  1  0
 19 43  1  0
 20 44  1  0
 21 45  1  6
 24 46  1  0
 26 47  1  0
 28 48  1  0
 30 49  1  0
 32 50  1  0
 33 51  1  0
M  END
$$$$
