
     RDKit          3D

 52 54  0  0  0  0  0  0  0  0999 V2000
   -2.6376    0.0127   -1.3457 C   0  0  2  0  0  0  0  0  0  0  0  0
   -2.9975   -0.8469   -2.5615 C   0  0  0  0  0  0  0  0  0  0  0  0
   -1.1809    0.1679   -1.2129 N   0  0  0  0  0  0  0  0  0  0  0  0
   -0.5374    1.4531   -1.0062 C   0  0  0  0  0  0  0  0  0  0  0  0
    0.9758    1.1760   -0.9535 C   0  0  0  0  0  0  0  0  0  0  0  0
    1.1673   -0.3547   -0.9053 C   0  0  2  0  0  0  0  0  0  0  0  0
    2.0842   -0.8148   -1.9600 N   0  0  0  0  0  0  0  0  0  0  0  0
    3.7433   -0.5778   -1.4865 S   0  0  0  0  0  6  0  0  0  0  0  0
    3.9638    0.8481   -1.0642 O   0  0  0  0  0  0  0  0  0  0  0  0
    4.6233   -0.8768   -2.6676 O   0  0  0  0  0  0  0  0  0  0  0  0
    4.1657   -1.6807   -0.1365 C   0  0  0  0  0  0  0  0  0  0  0  0
    5.6798   -1.7918    0.0767 C   0  0  0  0  0  0  0  0  0  0  0  0
    6.2791   -0.4993    0.5426 C   0  0  0  0  0  0  0  0  0  0  0  0
    6.0756    0.0906    1.7857 C   0  0  0  0  0  0  0  0  0  0  0  0
    6.7423    1.3126    1.9307 C   0  0  0  0  0  0  0  0  0  0  0  0
    7.4637    1.6761    0.8029 C   0  0  0  0  0  0  0  0  0  0  0  0
    8.4118    3.1371    0.6241 Cl  0  0  0  0  0  0  0  0  0  0  0  0
    7.2813    0.4935   -0.3769 S   0  0  0  0  0  0  0  0  0  0  0  0
   -0.2073   -0.8624   -1.1394 C   0  0  0  0  0  0  0  0  0  0  0  0
   -0.4891   -2.0880   -1.2194 O   0  0  0  0  0  0  0  0  0  0  0  0
   -3.2375   -0.5530   -0.0751 C   0  0  0  0  0  0  0  0  0  0  0  0
   -2.7205   -1.5847    0.4337 O   0  0  0  0  0  0  0  0  0  0  0  0
   -4.3888    0.0444    0.5620 N   0  0  0  0  0  0  0  0  0  0  0  0
   -5.2830    0.9525   -0.1682 C   0  0  0  0  0  0  0  0  0  0  0  0
   -6.6863    0.9249    0.4453 C   0  0  0  0  0  0  0  0  0  0  0  0
   -6.6304    1.1365    1.8420 O   0  0  0  0  0  0  0  0  0  0  0  0
   -5.9614    0.0536    2.4568 C   0  0  0  0  0  0  0  0  0  0  0  0
   -4.4927    0.0077    2.0266 C   0  0  0  0  0  0  0  0  0  0  0  0
   -3.0617    1.0221   -1.5295 H   0  0  0  0  0  0  0  0  0  0  0  0
   -2.4816   -0.4581   -3.4651 H   0  0  0  0  0  0  0  0  0  0  0  0
   -2.7086   -1.9071   -2.4091 H   0  0  0  0  0  0  0  0  0  0  0  0
   -4.0925   -0.8107   -2.7425 H   0  0  0  0  0  0  0  0  0  0  0  0
   -0.8841    1.8915   -0.0452 H   0  0  0  0  0  0  0  0  0  0  0  0
   -0.7832    2.1430   -1.8423 H   0  0  0  0  0  0  0  0  0  0  0  0
    1.4270    1.6522   -0.0559 H   0  0  0  0  0  0  0  0  0  0  0  0
    1.4552    1.6073   -1.8603 H   0  0  0  0  0  0  0  0  0  0  0  0
    1.4965   -0.6840    0.1042 H   0  0  0  0  0  0  0  0  0  0  0  0
    1.9706   -1.8477   -2.0824 H   0  0  0  0  0  0  0  0  0  0  0  0
    3.7646   -2.6890   -0.3722 H   0  0  0  0  0  0  0  0  0  0  0  0
    3.6780   -1.3296    0.7973 H   0  0  0  0  0  0  0  0  0  0  0  0
    5.8771   -2.5694    0.8453 H   0  0  0  0  0  0  0  0  0  0  0  0
    6.1722   -2.1221   -0.8628 H   0  0  0  0  0  0  0  0  0  0  0  0
    5.4608   -0.3457    2.5619 H   0  0  0  0  0  0  0  0  0  0  0  0
    6.6966    1.9125    2.8299 H   0  0  0  0  0  0  0  0  0  0  0  0
   -4.8767    1.9860   -0.1186 H   0  0  0  0  0  0  0  0  0  0  0  0
   -5.3683    0.6466   -1.2324 H   0  0  0  0  0  0  0  0  0  0  0  0
   -7.1989   -0.0345    0.2028 H   0  0  0  0  0  0  0  0  0  0  0  0
   -7.2897    1.7378   -0.0109 H   0  0  0  0  0  0  0  0  0  0  0  0
   -6.4647   -0.9143    2.2299 H   0  0  0  0  0  0  0  0  0  0  0  0
   -6.0053    0.1909    3.5578 H   0  0  0  0  0  0  0  0  0  0  0  0
   -4.0348   -0.9174    2.4382 H   0  0  0  0  0  0  0  0  0  0  0  0
   -3.9550    0.8835    2.4499 H   0  0  0  0  0  0  0  0  0  0  0  0
  1  2  1  0
  1  3  1  0
  3  4  1  0
  4  5  1  0
  5  6  1  0
  6  7  1  0
  7  8  1  0
  8  9  2  0
  8 10  2  0
  8 11  1  0
 11 12  1  0
 12 13  1  0
 13 14  2  0
 14 15  1  0
 15 16  2  0
 16 17  1  0
 16 18  1  0
  6 19  1  0
 19 20  2  0
  1 21  1  0
 21 22  2  0
 21 23  1  0
 23 24  1  0
 24 25  1  0
 25 26  1  0
 26 27  1  0
 27 28  1  0
 19  3  1  0
 28 23  1  0
 18 13  1  0
  1 29  1  6
  2 30  1  0
  2 31  1  0
  2 32  1  0
  4 33  1  0
  4 34  1  0
  5 35  1  0
  5 36  1  0
  6 37  1  1
  7 38  1  0
 11 39  1  0
 11 40  1  0
 12 41  1  0
 12 42  1  0
 14 43  1  0
 15 44  1  0
 24 45  1  0
 24 46  1  0
 25 47  1  0
 25 48  1  0
 27 49  1  0
 27 50  1  0
 28 51  1  0
 28 52  1  0
M  END
$$$$
