
     RDKit          3D

 34 36  0  0  0  0  0  0  0  0999 V2000
   -3.8360   -0.9369    0.0668 C   0  0  0  0  0  0  0  0  0  0  0  0
   -2.3867   -0.7187    0.1093 N   0  0  0  0  0  0  0  0  0  0  0  0
   -1.8121    0.5897   -0.1665 C   0  0  0  0  0  0  0  0  0  0  0  0
   -0.4436    0.7659   -0.5439 C   0  0  0  0  0  0  0  0  0  0  0  0
    0.0394    2.0633   -0.7998 C   0  0  0  0  0  0  0  0  0  0  0  0
   -0.7876    3.1773   -0.6714 C   0  0  0  0  0  0  0  0  0  0  0  0
   -0.1556    4.7823   -0.9912 Cl  0  0  0  0  0  0  0  0  0  0  0  0
   -2.1145    3.0153   -0.2868 C   0  0  0  0  0  0  0  0  0  0  0  0
   -2.6215    1.7408   -0.0369 C   0  0  0  0  0  0  0  0  0  0  0  0
    0.4701   -0.3429   -0.6951 N   0  0  0  0  0  0  0  0  0  0  0  0
    1.8127   -0.2842   -0.1651 C   0  0  0  0  0  0  0  0  0  0  0  0
    2.8800   -0.9010   -0.8446 C   0  0  0  0  0  0  0  0  0  0  0  0
    4.1760   -0.8494   -0.3225 C   0  0  0  0  0  0  0  0  0  0  0  0
    4.4204   -0.1879    0.8831 C   0  0  0  0  0  0  0  0  0  0  0  0
    3.3687    0.4221    1.5704 C   0  0  0  0  0  0  0  0  0  0  0  0
    2.0711    0.3737    1.0526 C   0  0  0  0  0  0  0  0  0  0  0  0
   -0.0048   -1.5746   -1.2430 C   0  0  0  0  0  0  0  0  0  0  0  0
    0.1755   -1.8395   -2.4614 O   0  0  0  0  0  0  0  0  0  0  0  0
   -0.6901   -2.5474   -0.3499 C   0  0  0  0  0  0  0  0  0  0  0  0
   -1.5842   -1.8062    0.5897 C   0  0  0  0  0  0  0  0  0  0  0  0
   -1.7160   -2.2059    1.7774 O   0  0  0  0  0  0  0  0  0  0  0  0
   -4.2807   -0.4038   -0.8003 H   0  0  0  0  0  0  0  0  0  0  0  0
   -4.2987   -0.5768    1.0097 H   0  0  0  0  0  0  0  0  0  0  0  0
   -4.0677   -2.0175   -0.0544 H   0  0  0  0  0  0  0  0  0  0  0  0
    1.0675    2.2062   -1.1089 H   0  0  0  0  0  0  0  0  0  0  0  0
   -2.7580    3.8792   -0.1783 H   0  0  0  0  0  0  0  0  0  0  0  0
   -3.6534    1.6650    0.2768 H   0  0  0  0  0  0  0  0  0  0  0  0
    2.7141   -1.4102   -1.7846 H   0  0  0  0  0  0  0  0  0  0  0  0
    4.9919   -1.3218   -0.8542 H   0  0  0  0  0  0  0  0  0  0  0  0
    5.4244   -0.1496    1.2856 H   0  0  0  0  0  0  0  0  0  0  0  0
    3.5580    0.9298    2.5073 H   0  0  0  0  0  0  0  0  0  0  0  0
    1.2661    0.8385    1.6073 H   0  0  0  0  0  0  0  0  0  0  0  0
    0.0757   -3.1181    0.2176 H   0  0  0  0  0  0  0  0  0  0  0  0
   -1.3007   -3.2567   -0.9485 H   0  0  0  0  0  0  0  0  0  0  0  0
  1  2  1  0
  2  3  1  0
  3  4  2  0
  4  5  1  0
  5  6  2  0
  6  7  1  0
  6  8  1  0
  8  9  2  0
  4 10  1  0
 10 11  1  0
 11 12  2  0
 12 13  1  0
 13 14  2  0
 14 15  1  0
 15 16  2  0
 10 17  1  0
 17 18  2  0
 17 19  1  0
 19 20  1  0
 20 21  2  0
 20  2  1  0
  9  3  1  0
 16 11  1  0
  1 22  1  0
  1 23  1  0
  1 24  1  0
  5 25  1  0
  8 26  1  0
  9 27  1  0
 12 28  1  0
 13 29  1  0
 14 30  1  0
 15 31  1  0
 16 32  1  0
 19 33  1  0
 19 34  1  0
M  END
$$$$
