
     RDKit          3D

 33 34  0  0  0  0  0  0  0  0999 V2000
   -5.2341   -0.3778    2.2186 C   0  0  0  0  0  0  0  0  0  0  0  0
   -4.2887    0.6649    2.0035 O   0  0  0  0  0  0  0  0  0  0  0  0
   -3.4336    0.7419    0.8941 C   0  0  0  0  0  0  0  0  0  0  0  0
   -2.5499    1.8240    0.8092 C   0  0  0  0  0  0  0  0  0  0  0  0
   -1.6773    1.9461   -0.2760 C   0  0  0  0  0  0  0  0  0  0  0  0
   -1.6802    0.9842   -1.2977 C   0  0  0  0  0  0  0  0  0  0  0  0
   -0.7279    1.0941   -2.4574 C   0  0  0  0  0  0  0  0  0  0  0  0
    0.3162    0.0771   -2.3534 N   0  0  0  0  0  0  0  0  0  0  0  0
    1.3738    0.1524   -1.3875 C   0  0  0  0  0  0  0  0  0  0  0  0
    1.4511    1.1488   -0.6193 O   0  0  0  0  0  0  0  0  0  0  0  0
    2.3416   -0.9068   -1.3151 N   0  0  0  0  0  0  0  0  0  0  0  0
    3.4036   -0.9947   -0.3524 C   0  0  0  0  0  0  0  0  0  0  0  0
    4.3120   -1.9971   -0.3729 N   0  0  0  0  0  0  0  0  0  0  0  0
    5.2152   -1.8889    0.6374 C   0  0  0  0  0  0  0  0  0  0  0  0
    5.0181   -0.7920    1.4682 C   0  0  0  0  0  0  0  0  0  0  0  0
    3.6784    0.0709    0.9306 S   0  0  0  0  0  0  0  0  0  0  0  0
    5.8188   -0.4463    2.6020 N   0  0  0  0  0  4  0  0  0  0  0  0
    5.5155    0.6697    3.3461 O   0  0  0  0  0  1  0  0  0  0  0  0
    6.7965   -1.1515    2.9251 O   0  0  0  0  0  0  0  0  0  0  0  0
   -2.5610   -0.1046   -1.2139 C   0  0  0  0  0  0  0  0  0  0  0  0
   -3.4337   -0.2262   -0.1284 C   0  0  0  0  0  0  0  0  0  0  0  0
   -5.9725   -0.4007    1.3895 H   0  0  0  0  0  0  0  0  0  0  0  0
   -5.7731   -0.1880    3.1693 H   0  0  0  0  0  0  0  0  0  0  0  0
   -4.7134   -1.3557    2.2942 H   0  0  0  0  0  0  0  0  0  0  0  0
   -2.5382    2.5737    1.5903 H   0  0  0  0  0  0  0  0  0  0  0  0
   -0.9992    2.7894   -0.3169 H   0  0  0  0  0  0  0  0  0  0  0  0
   -1.2937    0.9441   -3.4025 H   0  0  0  0  0  0  0  0  0  0  0  0
   -0.2656    2.1039   -2.5119 H   0  0  0  0  0  0  0  0  0  0  0  0
    0.2882   -0.7334   -3.0122 H   0  0  0  0  0  0  0  0  0  0  0  0
    2.2696   -1.6790   -2.0151 H   0  0  0  0  0  0  0  0  0  0  0  0
    6.0142   -2.6058    0.7714 H   0  0  0  0  0  0  0  0  0  0  0  0
   -2.5693   -0.8606   -1.9895 H   0  0  0  0  0  0  0  0  0  0  0  0
   -4.1014   -1.0761   -0.0929 H   0  0  0  0  0  0  0  0  0  0  0  0
  1  2  1  0
  2  3  1  0
  3  4  2  0
  4  5  1  0
  5  6  2  0
  6  7  1  0
  7  8  1  0
  8  9  1  0
  9 10  2  0
  9 11  1  0
 11 12  1  0
 12 13  2  0
 13 14  1  0
 14 15  2  0
 15 16  1  0
 15 17  1  0
 17 18  1  0
 17 19  2  0
  6 20  1  0
 20 21  2  0
 21  3  1  0
 16 12  1  0
  1 22  1  0
  1 23  1  0
  1 24  1  0
  4 25  1  0
  5 26  1  0
  7 27  1  0
  7 28  1  0
  8 29  1  0
 11 30  1  0
 14 31  1  0
 20 32  1  0
 21 33  1  0
M  CHG  2  17   1  18  -1
M  END
$$$$
