
     RDKit          3D

 25 25  0  0  0  0  0  0  0  0999 V2000
   -3.5126   -0.8233   -0.2395 N   0  0  0  0  0  0  0  0  0  0  0  0
   -2.1573   -0.4165    0.1332 C   0  0  1  0  0  0  0  0  0  0  0  0
   -1.2131   -0.5745   -1.0739 C   0  0  0  0  0  0  0  0  0  0  0  0
    0.2216   -0.2902   -0.7039 C   0  0  0  0  0  0  0  0  0  0  0  0
    0.9935   -1.2727   -0.0636 C   0  0  0  0  0  0  0  0  0  0  0  0
    2.3160   -1.0068    0.3096 C   0  0  0  0  0  0  0  0  0  0  0  0
    3.0561   -2.0065    0.9400 O   0  0  0  0  0  0  0  0  0  0  0  0
    2.8758    0.2556    0.0475 C   0  0  0  0  0  0  0  0  0  0  0  0
    4.1925    0.5269    0.4160 O   0  0  0  0  0  0  0  0  0  0  0  0
    2.1037    1.2404   -0.5840 C   0  0  0  0  0  0  0  0  0  0  0  0
    0.7839    0.9710   -0.9548 C   0  0  0  0  0  0  0  0  0  0  0  0
   -2.1767    1.0108    0.6077 C   0  0  0  0  0  0  0  0  0  0  0  0
   -2.7548    2.0002   -0.1825 O   0  0  0  0  0  0  0  0  0  0  0  0
   -1.6493    1.3164    1.7107 O   0  0  0  0  0  0  0  0  0  0  0  0
   -4.1236   -0.7473    0.6068 H   0  0  0  0  0  0  0  0  0  0  0  0
   -3.4957   -1.8393   -0.4887 H   0  0  0  0  0  0  0  0  0  0  0  0
   -1.8003   -1.0741    0.9597 H   0  0  0  0  0  0  0  0  0  0  0  0
   -1.5402    0.0939   -1.9013 H   0  0  0  0  0  0  0  0  0  0  0  0
   -1.2812   -1.6149   -1.4612 H   0  0  0  0  0  0  0  0  0  0  0  0
    0.5665   -2.2456    0.1480 H   0  0  0  0  0  0  0  0  0  0  0  0
    4.0160   -1.8634    1.2301 H   0  0  0  0  0  0  0  0  0  0  0  0
    4.6180    1.4293    0.2384 H   0  0  0  0  0  0  0  0  0  0  0  0
    2.5253    2.2169   -0.7855 H   0  0  0  0  0  0  0  0  0  0  0  0
    0.1994    1.7467   -1.4339 H   0  0  0  0  0  0  0  0  0  0  0  0
   -2.7635    2.9670    0.1196 H   0  0  0  0  0  0  0  0  0  0  0  0
  1  2  1  0
  2  3  1  0
  3  4  1  0
  4  5  2  0
  5  6  1  0
  6  7  1  0
  6  8  2  0
  8  9  1  0
  8 10  1  0
 10 11  2  0
  2 12  1  0
 12 13  1  0
 12 14  2  0
 11  4  1  0
  1 15  1  0
  1 16  1  0
  2 17  1  1
  3 18  1  0
  3 19  1  0
  5 20  1  0
  7 21  1  0
  9 22  1  0
 10 23  1  0
 11 24  1  0
 13 25  1  0
M  END
$$$$
