
     RDKit          3D

 55 58  0  0  0  0  0  0  0  0999 V2000
   -1.5616   -1.9904   -0.2489 C   0  0  2  0  0  0  0  0  0  0  0  0
   -1.8727   -3.4407   -0.6386 C   0  0  0  0  0  0  0  0  0  0  0  0
   -0.4756   -1.9726    0.7395 N   0  0  0  0  0  0  0  0  0  0  0  0
   -0.6237   -2.1891    2.1714 C   0  0  0  0  0  0  0  0  0  0  0  0
    0.8056   -2.3598    2.7204 C   0  0  0  0  0  0  0  0  0  0  0  0
    1.7696   -1.8627    1.6260 C   0  0  2  0  0  0  0  0  0  0  0  0
    2.2306   -0.5036    1.9584 N   0  0  0  0  0  0  0  0  0  0  0  0
    3.5857   -0.0002    0.9852 S   0  0  0  0  0  6  0  0  0  0  0  0
    4.5873   -1.1181    0.8878 O   0  0  0  0  0  0  0  0  0  0  0  0
    4.2480    1.1752    1.6460 O   0  0  0  0  0  0  0  0  0  0  0  0
    3.0589    0.4910   -0.6242 C   0  0  0  0  0  0  0  0  0  0  0  0
    2.0525    1.4566   -0.7610 C   0  0  0  0  0  0  0  0  0  0  0  0
    1.5874    1.8199   -2.0337 C   0  0  0  0  0  0  0  0  0  0  0  0
    0.5667    2.7719   -2.1785 C   0  0  0  0  0  0  0  0  0  0  0  0
    0.1037    3.1174   -3.4509 C   0  0  0  0  0  0  0  0  0  0  0  0
    0.6569    2.5203   -4.5881 C   0  0  0  0  0  0  0  0  0  0  0  0
    0.0692    2.9604   -6.1812 Cl  0  0  0  0  0  0  0  0  0  0  0  0
    1.6787    1.5736   -4.4573 C   0  0  0  0  0  0  0  0  0  0  0  0
    2.1500    1.2168   -3.1844 C   0  0  0  0  0  0  0  0  0  0  0  0
    3.1727    0.2684   -3.0404 C   0  0  0  0  0  0  0  0  0  0  0  0
    3.6252   -0.0899   -1.7680 C   0  0  0  0  0  0  0  0  0  0  0  0
    0.8996   -1.8791    0.4217 C   0  0  0  0  0  0  0  0  0  0  0  0
    1.3301   -1.8885   -0.7615 O   0  0  0  0  0  0  0  0  0  0  0  0
   -2.7769   -1.2511    0.2778 C   0  0  0  0  0  0  0  0  0  0  0  0
   -3.9033   -1.8218    0.2665 O   0  0  0  0  0  0  0  0  0  0  0  0
   -2.6694    0.0895    0.8070 N   0  0  0  0  0  0  0  0  0  0  0  0
   -1.6628    1.0363    0.3072 C   0  0  0  0  0  0  0  0  0  0  0  0
   -1.2836    2.0213    1.4172 C   0  0  0  0  0  0  0  0  0  0  0  0
   -2.4367    2.6346    1.9596 O   0  0  0  0  0  0  0  0  0  0  0  0
   -3.2318    1.6614    2.6085 C   0  0  0  0  0  0  0  0  0  0  0  0
   -3.7725    0.6407    1.6027 C   0  0  0  0  0  0  0  0  0  0  0  0
   -1.2304   -1.4668   -1.1722 H   0  0  0  0  0  0  0  0  0  0  0  0
   -2.2444   -4.0117    0.2387 H   0  0  0  0  0  0  0  0  0  0  0  0
   -0.9538   -3.9343   -1.0205 H   0  0  0  0  0  0  0  0  0  0  0  0
   -2.6397   -3.4671   -1.4419 H   0  0  0  0  0  0  0  0  0  0  0  0
   -1.2324   -3.0974    2.3683 H   0  0  0  0  0  0  0  0  0  0  0  0
   -1.1068   -1.3032    2.6364 H   0  0  0  0  0  0  0  0  0  0  0  0
    0.9948   -3.4390    2.9129 H   0  0  0  0  0  0  0  0  0  0  0  0
    0.9348   -1.8074    3.6771 H   0  0  0  0  0  0  0  0  0  0  0  0
    2.6205   -2.5705    1.5220 H   0  0  0  0  0  0  0  0  0  0  0  0
    1.4540    0.1856    1.8304 H   0  0  0  0  0  0  0  0  0  0  0  0
    1.6274    1.9153    0.1233 H   0  0  0  0  0  0  0  0  0  0  0  0
    0.1272    3.2479   -1.3112 H   0  0  0  0  0  0  0  0  0  0  0  0
   -0.6860    3.8510   -3.5520 H   0  0  0  0  0  0  0  0  0  0  0  0
    2.1004    1.1186   -5.3458 H   0  0  0  0  0  0  0  0  0  0  0  0
    3.6169   -0.2005   -3.9104 H   0  0  0  0  0  0  0  0  0  0  0  0
    4.4071   -0.8325   -1.6782 H   0  0  0  0  0  0  0  0  0  0  0  0
   -2.0844    1.5940   -0.5566 H   0  0  0  0  0  0  0  0  0  0  0  0
   -0.7415    0.5229   -0.0295 H   0  0  0  0  0  0  0  0  0  0  0  0
   -0.6915    1.5064    2.2080 H   0  0  0  0  0  0  0  0  0  0  0  0
   -0.6335    2.8122    0.9899 H   0  0  0  0  0  0  0  0  0  0  0  0
   -4.0901    2.1725    3.0932 H   0  0  0  0  0  0  0  0  0  0  0  0
   -2.6601    1.1474    3.4151 H   0  0  0  0  0  0  0  0  0  0  0  0
   -4.5031    1.1333    0.9252 H   0  0  0  0  0  0  0  0  0  0  0  0
   -4.2931   -0.1646    2.1657 H   0  0  0  0  0  0  0  0  0  0  0  0
  1  2  1  0
  1  3  1  0
  3  4  1  0
  4  5  1  0
  5  6  1  0
  6  7  1  0
  7  8  1  0
  8  9  2  0
  8 10  2  0
  8 11  1  0
 11 12  2  0
 12 13  1  0
 13 14  2  0
 14 15  1  0
 15 16  2  0
 16 17  1  0
 16 18  1  0
 18 19  2  0
 19 20  1  0
 20 21  2  0
  6 22  1  0
 22 23  2  0
  1 24  1  0
 24 25  2  0
 24 26  1  0
 26 27  1  0
 27 28  1  0
 28 29  1  0
 29 30  1  0
 30 31  1  0
 22  3  1  0
 31 26  1  0
 21 11  1  0
 19 13  1  0
  1 32  1  6
  2 33  1  0
  2 34  1  0
  2 35  1  0
  4 36  1  0
  4 37  1  0
  5 38  1  0
  5 39  1  0
  6 40  1  6
  7 41  1  0
 12 42  1  0
 14 43  1  0
 15 44  1  0
 18 45  1  0
 20 46  1  0
 21 47  1  0
 27 48  1  0
 27 49  1  0
 28 50  1  0
 28 51  1  0
 30 52  1  0
 30 53  1  0
 31 54  1  0
 31 55  1  0
M  END
$$$$
