
     RDKit          3D

 55 58  0  0  0  0  0  0  0  0999 V2000
   -0.7085    1.4427    1.0868 C   0  0  2  0  0  0  0  0  0  0  0  0
   -1.4499    1.0647    2.3905 C   0  0  0  0  0  0  0  0  0  0  0  0
   -2.9578    1.0340    2.1678 C   0  0  0  0  0  0  0  0  0  0  0  0
   -3.3696    0.0357    1.0684 C   0  0  1  0  0  0  0  0  0  0  0  0
   -4.9042    0.1178    0.9083 C   0  0  0  0  0  0  0  0  0  0  0  0
   -2.6019    0.3344   -0.2664 C   0  0  2  0  0  0  0  0  0  0  0  0
   -3.0524   -0.5987   -1.4514 C   0  0  0  0  0  0  0  0  0  0  0  0
   -2.0871   -1.7264   -1.8736 C   0  0  0  0  0  0  0  0  0  0  0  0
   -0.6297   -1.2163   -2.0460 C   0  0  1  0  0  0  0  0  0  0  0  0
    0.0282   -1.8927   -3.2510 C   0  0  0  0  0  0  0  0  0  0  0  0
   -0.6777    0.1864   -2.3030 O   0  0  0  0  0  0  0  0  0  0  0  0
   -0.3772    0.9154   -1.2220 O   0  0  0  0  0  0  0  0  0  0  0  0
   -1.0334    0.4375   -0.0518 C   0  0  1  0  0  0  0  0  0  0  0  0
   -0.3765   -0.9426    0.2674 C   0  0  2  0  0  0  0  0  0  0  0  0
    0.6329   -0.8904    1.2699 O   0  0  0  0  0  0  0  0  0  0  0  0
    1.5427    0.1786    1.0831 C   0  0  1  0  0  0  0  0  0  0  0  0
    2.1757    0.0699   -0.1959 O   0  0  0  0  0  0  0  0  0  0  0  0
    3.3457    0.7496   -0.5476 C   0  0  0  0  0  0  0  0  0  0  0  0
    3.9491    1.4737    0.2902 O   0  0  0  0  0  0  0  0  0  0  0  0
    3.8868    0.6029   -1.9368 C   0  0  0  0  0  0  0  0  0  0  0  0
    4.2760   -0.8477   -2.2410 C   0  0  0  0  0  0  0  0  0  0  0  0
    5.4224   -1.2993   -1.3892 C   0  0  0  0  0  0  0  0  0  0  0  0
    5.1763   -1.9680   -0.1942 O   0  0  0  0  0  0  0  0  0  0  0  0
    6.6063   -1.0414   -1.7351 O   0  0  0  0  0  0  0  0  0  0  0  0
    0.8386    1.5567    1.2511 C   0  0  2  0  0  0  0  0  0  0  0  0
    1.2732    2.2643    2.5451 C   0  0  0  0  0  0  0  0  0  0  0  0
    0.1590   -1.5283   -0.9043 O   0  0  0  0  0  0  0  0  0  0  0  0
   -1.0788    2.4481    0.7796 H   0  0  0  0  0  0  0  0  0  0  0  0
   -1.1114    0.0834    2.7841 H   0  0  0  0  0  0  0  0  0  0  0  0
   -1.2567    1.8263    3.1748 H   0  0  0  0  0  0  0  0  0  0  0  0
   -3.4432    0.7527    3.1285 H   0  0  0  0  0  0  0  0  0  0  0  0
   -3.3071    2.0568    1.9006 H   0  0  0  0  0  0  0  0  0  0  0  0
   -3.1301   -0.9899    1.4204 H   0  0  0  0  0  0  0  0  0  0  0  0
   -5.4024    0.1954    1.8987 H   0  0  0  0  0  0  0  0  0  0  0  0
   -5.3131   -0.8003    0.4414 H   0  0  0  0  0  0  0  0  0  0  0  0
   -5.1930    1.0038    0.3035 H   0  0  0  0  0  0  0  0  0  0  0  0
   -2.9219    1.3595   -0.5650 H   0  0  0  0  0  0  0  0  0  0  0  0
   -4.0355   -1.0674   -1.2708 H   0  0  0  0  0  0  0  0  0  0  0  0
   -3.2166    0.0446   -2.3450 H   0  0  0  0  0  0  0  0  0  0  0  0
   -2.1329   -2.5654   -1.1466 H   0  0  0  0  0  0  0  0  0  0  0  0
   -2.4722   -2.1390   -2.8329 H   0  0  0  0  0  0  0  0  0  0  0  0
    1.0733   -1.5322   -3.3615 H   0  0  0  0  0  0  0  0  0  0  0  0
   -0.5242   -1.6525   -4.1849 H   0  0  0  0  0  0  0  0  0  0  0  0
    0.0461   -2.9952   -3.1130 H   0  0  0  0  0  0  0  0  0  0  0  0
   -1.1388   -1.6353    0.6732 H   0  0  0  0  0  0  0  0  0  0  0  0
    2.3317    0.0583    1.8583 H   0  0  0  0  0  0  0  0  0  0  0  0
    3.0997    0.9213   -2.6533 H   0  0  0  0  0  0  0  0  0  0  0  0
    4.7658    1.2691   -2.0820 H   0  0  0  0  0  0  0  0  0  0  0  0
    3.4044   -1.5190   -2.0805 H   0  0  0  0  0  0  0  0  0  0  0  0
    4.5650   -0.9273   -3.3113 H   0  0  0  0  0  0  0  0  0  0  0  0
    5.9398   -2.2648    0.4017 H   0  0  0  0  0  0  0  0  0  0  0  0
    1.1908    2.2191    0.4282 H   0  0  0  0  0  0  0  0  0  0  0  0
    0.7267    3.2244    2.6613 H   0  0  0  0  0  0  0  0  0  0  0  0
    2.3599    2.4912    2.5044 H   0  0  0  0  0  0  0  0  0  0  0  0
    1.0878    1.6215    3.4318 H   0  0  0  0  0  0  0  0  0  0  0  0
  1  2  1  0
  2  3  1  0
  3  4  1  0
  4  5  1  0
  4  6  1  0
  6  7  1  0
  7  8  1  0
  8  9  1  0
  9 10  1  6
  9 11  1  0
 11 12  1  0
 13 12  1  6
 13 14  1  0
 14 15  1  0
 15 16  1  0
 16 17  1  0
 17 18  1  0
 18 19  2  0
 18 20  1  0
 20 21  1  0
 21 22  1  0
 22 23  1  0
 22 24  2  0
 16 25  1  0
 25 26  1  0
 14 27  1  0
 13  1  1  0
 25  1  1  0
 13  6  1  0
 27  9  1  0
  1 28  1  6
  2 29  1  0
  2 30  1  0
  3 31  1  0
  3 32  1  0
  4 33  1  1
  5 34  1  0
  5 35  1  0
  5 36  1  0
  6 37  1  6
  7 38  1  0
  7 39  1  0
  8 40  1  0
  8 41  1  0
 10 42  1  0
 10 43  1  0
 10 44  1  0
 14 45  1  1
 16 46  1  1
 20 47  1  0
 20 48  1  0
 21 49  1  0
 21 50  1  0
 23 51  1  0
 25 52  1  6
 26 53  1  0
 26 54  1  0
 26 55  1  0
M  END
$$$$
