
     RDKit          3D

 47 50  0  0  0  0  0  0  0  0999 V2000
    5.6223   -1.9028    1.5028 C   0  0  0  0  0  0  0  0  0  0  0  0
    4.3075   -1.7227    0.8688 N   0  0  0  0  0  0  0  0  0  0  0  0
    3.4858   -0.7956    1.6703 C   0  0  0  0  0  0  0  0  0  0  0  0
    2.0905   -0.6574    1.0568 C   0  0  0  0  0  0  0  0  0  0  0  0
    2.1959   -0.2961   -0.3615 N   0  0  0  0  0  0  0  0  0  0  0  0
    3.1178   -1.0817   -1.1920 C   0  0  0  0  0  0  0  0  0  0  0  0
    4.4771   -1.1979   -0.4997 C   0  0  0  0  0  0  0  0  0  0  0  0
    1.1284    0.4520   -0.9741 C   0  0  0  0  0  0  0  0  0  0  0  0
   -0.1373    0.3516   -0.4841 N   0  0  0  0  0  0  0  0  0  0  0  0
   -1.1779    1.0392   -1.0270 C   0  0  0  0  0  0  0  0  0  0  0  0
   -2.4802    0.9280   -0.4987 C   0  0  0  0  0  0  0  0  0  0  0  0
   -3.5158    1.6873   -1.0724 C   0  0  0  0  0  0  0  0  0  0  0  0
   -3.2759    2.5235   -2.1777 C   0  0  0  0  0  0  0  0  0  0  0  0
   -1.9692    2.6391   -2.6802 C   0  0  0  0  0  0  0  0  0  0  0  0
   -0.9284    1.8988   -2.1150 C   0  0  0  0  0  0  0  0  0  0  0  0
    0.3372    2.0159   -2.5959 N   0  0  0  0  0  0  0  0  0  0  0  0
    1.3678    1.3155   -2.0544 C   0  0  0  0  0  0  0  0  0  0  0  0
   -4.3910    3.3611   -2.7530 C   0  0  0  0  0  0  0  0  0  0  0  0
   -4.4641    4.5565   -2.0629 F   0  0  0  0  0  0  0  0  0  0  0  0
   -5.6031    2.7018   -2.6428 F   0  0  0  0  0  0  0  0  0  0  0  0
   -4.1648    3.6270   -4.0925 F   0  0  0  0  0  0  0  0  0  0  0  0
   -2.7746    0.0415    0.6550 C   0  0  0  0  0  0  0  0  0  0  0  0
   -2.3654   -1.3044    0.6476 C   0  0  0  0  0  0  0  0  0  0  0  0
   -2.6411   -2.1361    1.7385 C   0  0  0  0  0  0  0  0  0  0  0  0
   -2.2225   -3.4645    1.7128 O   0  0  0  0  0  0  0  0  0  0  0  0
   -3.3358   -1.6279    2.8439 C   0  0  0  0  0  0  0  0  0  0  0  0
   -3.7548   -0.2954    2.8551 C   0  0  0  0  0  0  0  0  0  0  0  0
   -3.4788    0.5365    1.7664 C   0  0  0  0  0  0  0  0  0  0  0  0
    6.1731   -0.9381    1.5746 H   0  0  0  0  0  0  0  0  0  0  0  0
    6.2323   -2.6253    0.9190 H   0  0  0  0  0  0  0  0  0  0  0  0
    5.4999   -2.3265    2.5228 H   0  0  0  0  0  0  0  0  0  0  0  0
    3.3713   -1.1864    2.7057 H   0  0  0  0  0  0  0  0  0  0  0  0
    3.9641    0.2094    1.7296 H   0  0  0  0  0  0  0  0  0  0  0  0
    1.5412   -1.6195    1.1521 H   0  0  0  0  0  0  0  0  0  0  0  0
    1.5329    0.1249    1.6175 H   0  0  0  0  0  0  0  0  0  0  0  0
    2.6927   -2.0975   -1.3453 H   0  0  0  0  0  0  0  0  0  0  0  0
    3.2641   -0.6198   -2.1899 H   0  0  0  0  0  0  0  0  0  0  0  0
    5.1116   -1.8898   -1.0968 H   0  0  0  0  0  0  0  0  0  0  0  0
    4.9709   -0.1989   -0.4849 H   0  0  0  0  0  0  0  0  0  0  0  0
   -4.5165    1.6159   -0.6629 H   0  0  0  0  0  0  0  0  0  0  0  0
   -1.7560    3.3087   -3.5049 H   0  0  0  0  0  0  0  0  0  0  0  0
    2.3652    1.4561   -2.4471 H   0  0  0  0  0  0  0  0  0  0  0  0
   -1.8429   -1.7130   -0.2088 H   0  0  0  0  0  0  0  0  0  0  0  0
   -2.4063   -4.0926    2.4865 H   0  0  0  0  0  0  0  0  0  0  0  0
   -3.5531   -2.2645    3.6921 H   0  0  0  0  0  0  0  0  0  0  0  0
   -4.2921    0.0945    3.7100 H   0  0  0  0  0  0  0  0  0  0  0  0
   -3.8018    1.5698    1.7966 H   0  0  0  0  0  0  0  0  0  0  0  0
  1  2  1  0
  2  3  1  0
  3  4  1  0
  4  5  1  0
  5  6  1  0
  6  7  1  0
  5  8  1  0
  8  9  2  0
  9 10  1  0
 10 11  2  0
 11 12  1  0
 12 13  2  0
 13 14  1  0
 14 15  2  0
 15 16  1  0
 16 17  2  0
 13 18  1  0
 18 19  1  0
 18 20  1  0
 18 21  1  0
 11 22  1  0
 22 23  2  0
 23 24  1  0
 24 25  1  0
 24 26  2  0
 26 27  1  0
 27 28  2  0
  7  2  1  0
 17  8  1  0
 28 22  1  0
 15 10  1  0
  1 29  1  0
  1 30  1  0
  1 31  1  0
  3 32  1  0
  3 33  1  0
  4 34  1  0
  4 35  1  0
  6 36  1  0
  6 37  1  0
  7 38  1  0
  7 39  1  0
 12 40  1  0
 14 41  1  0
 17 42  1  0
 23 43  1  0
 25 44  1  0
 26 45  1  0
 27 46  1  0
 28 47  1  0
M  END
$$$$
