
     RDKit          3D

 72 78  0  0  0  0  0  0  0  0999 V2000
    5.8262    0.9359    1.1510 O   0  0  0  0  0  0  0  0  0  0  0  0
    6.8618    0.5761    0.2774 C   0  0  0  0  0  0  0  0  0  0  0  0
    6.3392    0.4075   -1.1694 C   0  0  0  0  0  0  0  0  0  0  0  0
    7.5023    0.1445   -2.1394 C   0  0  0  0  0  0  0  0  0  0  0  0
    8.3790    1.2387   -2.1834 O   0  0  0  0  0  0  0  0  0  0  0  0
    5.3771   -0.7024   -1.2782 N   0  0  0  0  0  0  0  0  0  0  0  0
    4.1336   -0.2993   -0.7505 N   0  0  0  0  0  0  0  0  0  0  0  0
    3.4189   -0.9672    0.2876 C   0  0  0  0  0  0  0  0  0  0  0  0
    3.9403   -1.8334    1.0337 O   0  0  0  0  0  0  0  0  0  0  0  0
    2.0021   -0.5851    0.2543 C   0  0  0  0  0  0  0  0  0  0  0  0
    0.8776   -1.0307    0.9762 C   0  0  0  0  0  0  0  0  0  0  0  0
   -0.4127   -0.6582    0.5763 C   0  0  0  0  0  0  0  0  0  0  0  0
   -1.3415   -1.3127    1.3125 N   0  0  0  0  0  0  0  0  0  0  0  0
   -0.6515   -2.0429    2.2071 C   0  0  0  0  0  0  0  0  0  0  0  0
    0.7108   -1.8929    2.0534 C   0  0  0  0  0  0  0  0  0  0  0  0
    1.6033   -2.5182    2.9306 C   0  0  0  0  0  0  0  0  0  0  0  0
    1.0774   -3.3438    3.9399 C   0  0  0  0  0  0  0  0  0  0  0  0
   -0.3152   -3.5217    4.0725 C   0  0  0  0  0  0  0  0  0  0  0  0
   -0.8080   -4.3475    5.0800 O   0  0  0  0  0  0  0  0  0  0  0  0
   -1.1962   -2.8594    3.1975 C   0  0  0  0  0  0  0  0  0  0  0  0
   -0.5927    0.2569   -0.4975 C   0  0  0  0  0  0  0  0  0  0  0  0
   -1.7313    0.8340   -0.9953 N   0  0  0  0  0  0  0  0  0  0  0  0
   -3.1205    0.7726   -0.5004 C   0  0  2  0  0  0  0  0  0  0  0  0
   -3.1286    0.8192    0.9153 O   0  0  0  0  0  0  0  0  0  0  0  0
   -4.4518    0.8764    1.4216 C   0  0  2  0  0  0  0  0  0  0  0  0
   -4.3782    1.0413    2.9450 C   0  0  0  0  0  0  0  0  0  0  0  0
   -3.6842   -0.0323    3.5200 O   0  0  0  0  0  0  0  0  0  0  0  0
   -5.2486   -0.3960    1.0301 C   0  0  1  0  0  0  0  0  0  0  0  0
   -6.5622   -0.3469    1.5314 O   0  0  0  0  0  0  0  0  0  0  0  0
   -5.2614   -0.5648   -0.5019 C   0  0  2  0  0  0  0  0  0  0  0  0
   -5.8191   -1.8079   -0.8428 O   0  0  0  0  0  0  0  0  0  0  0  0
   -3.8313   -0.4791   -1.0617 C   0  0  1  0  0  0  0  0  0  0  0  0
   -3.8792   -0.3890   -2.4630 O   0  0  0  0  0  0  0  0  0  0  0  0
   -1.3070    1.6147   -2.0268 C   0  0  0  0  0  0  0  0  0  0  0  0
    0.0698    1.5914   -2.1550 C   0  0  0  0  0  0  0  0  0  0  0  0
    0.7266    2.4211   -3.0704 C   0  0  0  0  0  0  0  0  0  0  0  0
   -0.0467    3.2215   -3.9237 C   0  0  0  0  0  0  0  0  0  0  0  0
   -1.4505    3.2058   -3.8435 C   0  0  0  0  0  0  0  0  0  0  0  0
   -2.1940    3.9990   -4.7145 O   0  0  0  0  0  0  0  0  0  0  0  0
   -2.0933    2.4034   -2.8838 C   0  0  0  0  0  0  0  0  0  0  0  0
    0.5369    0.7133   -1.1909 C   0  0  0  0  0  0  0  0  0  0  0  0
    1.8300    0.2665   -0.8407 C   0  0  0  0  0  0  0  0  0  0  0  0
    3.1386    0.3951   -1.4958 C   0  0  0  0  0  0  0  0  0  0  0  0
    3.3551    0.8768   -2.6362 O   0  0  0  0  0  0  0  0  0  0  0  0
    5.5991    1.8809    0.9487 H   0  0  0  0  0  0  0  0  0  0  0  0
    7.6603    1.3516    0.3126 H   0  0  0  0  0  0  0  0  0  0  0  0
    7.3112   -0.3762    0.6317 H   0  0  0  0  0  0  0  0  0  0  0  0
    5.8523    1.3577   -1.4870 H   0  0  0  0  0  0  0  0  0  0  0  0
    8.0683   -0.7546   -1.8136 H   0  0  0  0  0  0  0  0  0  0  0  0
    7.1044   -0.0628   -3.1594 H   0  0  0  0  0  0  0  0  0  0  0  0
    7.9285    1.9429   -2.7191 H   0  0  0  0  0  0  0  0  0  0  0  0
    5.7316   -1.5283   -0.7413 H   0  0  0  0  0  0  0  0  0  0  0  0
   -2.3731   -1.3328    1.2206 H   0  0  0  0  0  0  0  0  0  0  0  0
    2.6639   -2.3564    2.8928 H   0  0  0  0  0  0  0  0  0  0  0  0
    1.7503   -3.8369    4.6299 H   0  0  0  0  0  0  0  0  0  0  0  0
   -1.8029   -4.4938    5.2045 H   0  0  0  0  0  0  0  0  0  0  0  0
   -2.2689   -2.9696    3.2951 H   0  0  0  0  0  0  0  0  0  0  0  0
   -3.6687    1.6691   -0.8628 H   0  0  0  0  0  0  0  0  0  0  0  0
   -4.9732    1.7786    1.0239 H   0  0  0  0  0  0  0  0  0  0  0  0
   -5.4038    1.1036    3.3725 H   0  0  0  0  0  0  0  0  0  0  0  0
   -3.8488    1.9924    3.1780 H   0  0  0  0  0  0  0  0  0  0  0  0
   -3.6672    0.1418    4.4968 H   0  0  0  0  0  0  0  0  0  0  0  0
   -4.7498   -1.2856    1.4729 H   0  0  0  0  0  0  0  0  0  0  0  0
   -7.0011    0.4575    1.1486 H   0  0  0  0  0  0  0  0  0  0  0  0
   -5.8619    0.2587   -0.9586 H   0  0  0  0  0  0  0  0  0  0  0  0
   -6.8048   -1.7092   -0.7772 H   0  0  0  0  0  0  0  0  0  0  0  0
   -3.2623   -1.3905   -0.7741 H   0  0  0  0  0  0  0  0  0  0  0  0
   -4.0449   -1.3053   -2.8076 H   0  0  0  0  0  0  0  0  0  0  0  0
    1.7953    2.5050   -3.1150 H   0  0  0  0  0  0  0  0  0  0  0  0
    0.4442    3.8646   -4.6431 H   0  0  0  0  0  0  0  0  0  0  0  0
   -3.2067    4.0152   -4.6827 H   0  0  0  0  0  0  0  0  0  0  0  0
   -3.1723    2.4021   -2.8357 H   0  0  0  0  0  0  0  0  0  0  0  0
  1  2  1  0
  2  3  1  0
  3  4  1  0
  4  5  1  0
  3  6  1  0
  6  7  1  0
  7  8  1  0
  8  9  2  0
  8 10  1  0
 10 11  2  0
 11 12  1  0
 12 13  1  0
 13 14  1  0
 14 15  2  0
 15 16  1  0
 16 17  2  0
 17 18  1  0
 18 19  1  0
 18 20  2  0
 12 21  2  0
 21 22  1  0
 22 23  1  0
 23 24  1  0
 24 25  1  0
 25 26  1  0
 26 27  1  0
 25 28  1  0
 28 29  1  0
 28 30  1  0
 30 31  1  0
 30 32  1  0
 32 33  1  0
 22 34  1  0
 34 35  2  0
 35 36  1  0
 36 37  2  0
 37 38  1  0
 38 39  1  0
 38 40  2  0
 35 41  1  0
 41 42  2  0
 42 43  1  0
 43 44  2  0
 43  7  1  0
 42 10  1  0
 15 11  1  0
 41 21  1  0
 20 14  1  0
 32 23  1  0
 40 34  1  0
  1 45  1  0
  2 46  1  0
  2 47  1  0
  3 48  1  0
  4 49  1  0
  4 50  1  0
  5 51  1  0
  6 52  1  0
 13 53  1  0
 16 54  1  0
 17 55  1  0
 19 56  1  0
 20 57  1  0
 23 58  1  6
 25 59  1  6
 26 60  1  0
 26 61  1  0
 27 62  1  0
 28 63  1  1
 29 64  1  0
 30 65  1  6
 31 66  1  0
 32 67  1  6
 33 68  1  0
 36 69  1  0
 37 70  1  0
 39 71  1  0
 40 72  1  0
M  END
$$$$
