
     RDKit          3D

 40 43  0  0  0  0  0  0  0  0999 V2000
    1.9962    1.4281   -2.8904 N   0  0  0  0  0  0  0  0  0  0  0  0
    1.5346    0.4775   -1.9305 C   0  0  0  0  0  0  0  0  0  0  0  0
    0.2739   -0.0314   -2.0098 N   0  0  0  0  0  0  0  0  0  0  0  0
   -0.1689   -0.9422   -1.0853 C   0  0  0  0  0  0  0  0  0  0  0  0
   -1.4973   -1.4732   -1.1673 N   0  0  0  0  0  0  0  0  0  0  0  0
   -2.4705   -1.0337   -2.1673 C   0  0  0  0  0  0  0  0  0  0  0  0
   -2.9901    0.3760   -1.8589 C   0  0  0  0  0  0  0  0  0  0  0  0
   -3.6544    0.4356   -0.5078 C   0  0  0  0  0  0  0  0  0  0  0  0
   -2.9295    0.8493    0.6222 C   0  0  0  0  0  0  0  0  0  0  0  0
   -3.5381    0.8715    1.8807 C   0  0  0  0  0  0  0  0  0  0  0  0
   -4.8716    0.4751    2.0247 C   0  0  0  0  0  0  0  0  0  0  0  0
   -5.4651    0.5023    3.2847 O   0  0  0  0  0  0  0  0  0  0  0  0
   -5.5966    0.0525    0.9021 C   0  0  0  0  0  0  0  0  0  0  0  0
   -4.9901    0.0287   -0.3575 C   0  0  0  0  0  0  0  0  0  0  0  0
    0.6568   -1.3511   -0.0757 N   0  0  0  0  0  0  0  0  0  0  0  0
    1.9044   -0.8299   -0.0208 C   0  0  0  0  0  0  0  0  0  0  0  0
    2.8393   -1.1174    0.9001 N   0  0  0  0  0  0  0  0  0  0  0  0
    3.8628   -0.3255    0.4753 C   0  0  0  0  0  0  0  0  0  0  0  0
    3.5660    0.3969   -0.6341 N   0  0  0  0  0  0  0  0  0  0  0  0
    2.3262    0.0545   -0.9182 N   0  0  0  0  0  0  0  0  0  0  0  0
    5.1632   -0.2560    1.1489 C   0  0  0  0  0  0  0  0  0  0  0  0
    5.5304   -0.9610    2.2777 C   0  0  0  0  0  0  0  0  0  0  0  0
    6.8276   -0.5797    2.5456 C   0  0  0  0  0  0  0  0  0  0  0  0
    7.1697    0.3314    1.5664 C   0  0  0  0  0  0  0  0  0  0  0  0
    6.1566    0.5035    0.7485 O   0  0  0  0  0  0  0  0  0  0  0  0
    1.3675    1.7415   -3.6628 H   0  0  0  0  0  0  0  0  0  0  0  0
    2.9615    1.8214   -2.8341 H   0  0  0  0  0  0  0  0  0  0  0  0
   -1.7773   -2.2261   -0.4988 H   0  0  0  0  0  0  0  0  0  0  0  0
   -2.0053   -1.0513   -3.1765 H   0  0  0  0  0  0  0  0  0  0  0  0
   -3.3269   -1.7428   -2.1829 H   0  0  0  0  0  0  0  0  0  0  0  0
   -3.7206    0.6689   -2.6441 H   0  0  0  0  0  0  0  0  0  0  0  0
   -2.1571    1.1094   -1.9115 H   0  0  0  0  0  0  0  0  0  0  0  0
   -1.8934    1.1509    0.5292 H   0  0  0  0  0  0  0  0  0  0  0  0
   -2.9720    1.1940    2.7453 H   0  0  0  0  0  0  0  0  0  0  0  0
   -6.4288    0.2208    3.4221 H   0  0  0  0  0  0  0  0  0  0  0  0
   -6.6278   -0.2605    1.0051 H   0  0  0  0  0  0  0  0  0  0  0  0
   -5.5593   -0.3084   -1.2149 H   0  0  0  0  0  0  0  0  0  0  0  0
    4.9301   -1.6657    2.8381 H   0  0  0  0  0  0  0  0  0  0  0  0
    7.4516   -0.9247    3.3590 H   0  0  0  0  0  0  0  0  0  0  0  0
    8.1225    0.8352    1.4734 H   0  0  0  0  0  0  0  0  0  0  0  0
  1  2  1  0
  2  3  2  0
  3  4  1  0
  4  5  1  0
  5  6  1  0
  6  7  1  0
  7  8  1  0
  8  9  2  0
  9 10  1  0
 10 11  2  0
 11 12  1  0
 11 13  1  0
 13 14  2  0
  4 15  2  0
 15 16  1  0
 16 17  2  0
 17 18  1  0
 18 19  2  0
 19 20  1  0
 18 21  1  0
 21 22  2  0
 22 23  1  0
 23 24  2  0
 24 25  1  0
 20  2  1  0
 25 21  1  0
 14  8  1  0
 20 16  1  0
  1 26  1  0
  1 27  1  0
  5 28  1  0
  6 29  1  0
  6 30  1  0
  7 31  1  0
  7 32  1  0
  9 33  1  0
 10 34  1  0
 12 35  1  0
 13 36  1  0
 14 37  1  0
 22 38  1  0
 23 39  1  0
 24 40  1  0
M  END
$$$$
