
     RDKit          3D

 41 41  0  0  0  0  0  0  0  0999 V2000
   -4.6169    1.1263   -1.4192 C   0  0  0  0  0  0  0  0  0  0  0  0
   -4.2333    0.1363   -0.3120 C   0  0  0  0  0  0  0  0  0  0  0  0
   -5.4840   -0.6403    0.1299 C   0  0  0  0  0  0  0  0  0  0  0  0
   -3.6304    0.8785    0.8139 N   0  0  0  0  0  0  0  0  0  0  0  0
   -3.1312    0.0543    1.9341 C   0  0  0  0  0  0  0  0  0  0  0  0
   -1.9639   -0.9042    1.5926 C   0  0  0  0  0  0  0  0  0  0  0  0
   -2.4410   -2.0181    0.8830 O   0  0  0  0  0  0  0  0  0  0  0  0
   -0.8267   -0.2179    0.8220 C   0  0  0  0  0  0  0  0  0  0  0  0
    0.3094   -1.0782    0.7779 O   0  0  0  0  0  0  0  0  0  0  0  0
    1.5201   -0.7606    0.1451 C   0  0  0  0  0  0  0  0  0  0  0  0
    2.5538   -1.7035    0.1767 C   0  0  0  0  0  0  0  0  0  0  0  0
    3.7794   -1.4354   -0.4395 C   0  0  0  0  0  0  0  0  0  0  0  0
    3.9850   -0.2183   -1.1070 C   0  0  0  0  0  0  0  0  0  0  0  0
    5.3147    0.0833   -1.7412 C   0  0  0  0  0  0  0  0  0  0  0  0
    6.2392    0.6955   -0.7341 C   0  0  0  0  0  0  0  0  0  0  0  0
    6.2005    2.0991   -0.4768 N   0  0  0  0  0  0  0  0  0  0  0  0
    7.0291   -0.0378   -0.0816 O   0  0  0  0  0  0  0  0  0  0  0  0
    2.9549    0.7347   -1.1306 C   0  0  0  0  0  0  0  0  0  0  0  0
    1.7293    0.4661   -0.5139 C   0  0  0  0  0  0  0  0  0  0  0  0
   -5.0605    0.5890   -2.2847 H   0  0  0  0  0  0  0  0  0  0  0  0
   -5.3505    1.8695   -1.0392 H   0  0  0  0  0  0  0  0  0  0  0  0
   -3.7150    1.6661   -1.7789 H   0  0  0  0  0  0  0  0  0  0  0  0
   -3.5005   -0.5692   -0.7546 H   0  0  0  0  0  0  0  0  0  0  0  0
   -6.1746    0.0237    0.6926 H   0  0  0  0  0  0  0  0  0  0  0  0
   -5.2058   -1.5041    0.7675 H   0  0  0  0  0  0  0  0  0  0  0  0
   -6.0198   -1.0496   -0.7532 H   0  0  0  0  0  0  0  0  0  0  0  0
   -2.8548    1.4888    0.4664 H   0  0  0  0  0  0  0  0  0  0  0  0
   -3.9630   -0.5150    2.3983 H   0  0  0  0  0  0  0  0  0  0  0  0
   -2.7772    0.7477    2.7281 H   0  0  0  0  0  0  0  0  0  0  0  0
   -1.5508   -1.2513    2.5695 H   0  0  0  0  0  0  0  0  0  0  0  0
   -1.7669   -2.7399    0.9853 H   0  0  0  0  0  0  0  0  0  0  0  0
   -0.5486    0.7272    1.3379 H   0  0  0  0  0  0  0  0  0  0  0  0
   -1.1538    0.0079   -0.2156 H   0  0  0  0  0  0  0  0  0  0  0  0
    2.4070   -2.6483    0.6846 H   0  0  0  0  0  0  0  0  0  0  0  0
    4.5686   -2.1759   -0.3954 H   0  0  0  0  0  0  0  0  0  0  0  0
    5.7650   -0.8493   -2.1465 H   0  0  0  0  0  0  0  0  0  0  0  0
    5.1857    0.7780   -2.5994 H   0  0  0  0  0  0  0  0  0  0  0  0
    6.8344    2.5216    0.2371 H   0  0  0  0  0  0  0  0  0  0  0  0
    5.5378    2.7176   -0.9950 H   0  0  0  0  0  0  0  0  0  0  0  0
    3.1010    1.6865   -1.6262 H   0  0  0  0  0  0  0  0  0  0  0  0
    0.9540    1.2190   -0.5526 H   0  0  0  0  0  0  0  0  0  0  0  0
  1  2  1  0
  2  3  1  0
  2  4  1  0
  4  5  1  0
  5  6  1  0
  6  7  1  0
  6  8  1  0
  8  9  1  0
  9 10  1  0
 10 11  2  0
 11 12  1  0
 12 13  2  0
 13 14  1  0
 14 15  1  0
 15 16  1  0
 15 17  2  0
 13 18  1  0
 18 19  2  0
 19 10  1  0
  1 20  1  0
  1 21  1  0
  1 22  1  0
  2 23  1  0
  3 24  1  0
  3 25  1  0
  3 26  1  0
  4 27  1  0
  5 28  1  0
  5 29  1  0
  6 30  1  0
  7 31  1  0
  8 32  1  0
  8 33  1  0
 11 34  1  0
 12 35  1  0
 14 36  1  0
 14 37  1  0
 16 38  1  0
 16 39  1  0
 18 40  1  0
 19 41  1  0
M  END
$$$$
