
     RDKit          3D

 29 31  0  0  0  0  0  0  0  0999 V2000
   -0.0041    4.6176    0.7383 Br  0  0  0  0  0  0  0  0  0  0  0  0
    0.8089    2.9431    0.3107 C   0  0  0  0  0  0  0  0  0  0  0  0
    0.1249    1.7513    0.5584 C   0  0  0  0  0  0  0  0  0  0  0  0
    0.7026    0.5070    0.2398 C   0  0  0  0  0  0  0  0  0  0  0  0
    2.0176    0.4787   -0.2978 C   0  0  0  0  0  0  0  0  0  0  0  0
    2.6981   -0.7502   -0.6048 N   0  0  0  0  0  0  0  0  0  0  0  0
    2.6728   -1.8942    0.2561 C   0  0  0  0  0  0  0  0  0  0  0  0
    3.4073   -2.8849   -0.0023 O   0  0  0  0  0  0  0  0  0  0  0  0
    1.7789   -1.9277    1.4522 C   0  0  0  0  0  0  0  0  0  0  0  0
    0.3971   -1.7896    1.0157 N   0  0  0  0  0  0  0  0  0  0  0  0
   -0.1080   -0.7313    0.4493 C   0  0  0  0  0  0  0  0  0  0  0  0
   -1.5358   -0.7796    0.0533 C   0  0  0  0  0  0  0  0  0  0  0  0
   -2.0379    0.0152   -0.9931 C   0  0  0  0  0  0  0  0  0  0  0  0
   -3.3868   -0.0783   -1.3412 C   0  0  0  0  0  0  0  0  0  0  0  0
   -4.2215   -0.9638   -0.6593 C   0  0  0  0  0  0  0  0  0  0  0  0
   -3.6901   -1.7515    0.3628 C   0  0  0  0  0  0  0  0  0  0  0  0
   -2.3744   -1.6461    0.6897 N   0  0  0  0  0  0  0  0  0  0  0  0
    2.6796    1.6882   -0.5623 C   0  0  0  0  0  0  0  0  0  0  0  0
    2.0811    2.9109   -0.2583 C   0  0  0  0  0  0  0  0  0  0  0  0
   -0.8653    1.7968    0.9953 H   0  0  0  0  0  0  0  0  0  0  0  0
    3.4005   -0.7470   -1.3792 H   0  0  0  0  0  0  0  0  0  0  0  0
    1.8912   -2.8949    1.9867 H   0  0  0  0  0  0  0  0  0  0  0  0
    2.0458   -1.1095    2.1556 H   0  0  0  0  0  0  0  0  0  0  0  0
   -1.3947    0.6880   -1.5457 H   0  0  0  0  0  0  0  0  0  0  0  0
   -3.7830    0.5306   -2.1436 H   0  0  0  0  0  0  0  0  0  0  0  0
   -5.2678   -1.0440   -0.9243 H   0  0  0  0  0  0  0  0  0  0  0  0
   -4.3227   -2.4486    0.8958 H   0  0  0  0  0  0  0  0  0  0  0  0
    3.6746    1.6807   -0.9895 H   0  0  0  0  0  0  0  0  0  0  0  0
    2.6111    3.8332   -0.4587 H   0  0  0  0  0  0  0  0  0  0  0  0
  1  2  1  0
  2  3  2  0
  3  4  1  0
  4  5  2  0
  5  6  1  0
  6  7  1  0
  7  8  2  0
  7  9  1  0
  9 10  1  0
 10 11  2  0
 11 12  1  0
 12 13  2  0
 13 14  1  0
 14 15  2  0
 15 16  1  0
 16 17  2  0
  5 18  1  0
 18 19  2  0
 19  2  1  0
 11  4  1  0
 17 12  1  0
  3 20  1  0
  6 21  1  0
  9 22  1  0
  9 23  1  0
 13 24  1  0
 14 25  1  0
 15 26  1  0
 16 27  1  0
 18 28  1  0
 19 29  1  0
M  END
$$$$
