
     RDKit          3D

 65 67  0  0  0  0  0  0  0  0999 V2000
    4.7248   -1.1285    4.9115 C   0  0  0  0  0  0  0  0  0  0  0  0
    3.7376   -0.0467    4.4561 C   0  0  0  0  0  0  0  0  0  0  0  0
    4.4549    0.9801    3.5717 C   0  0  0  0  0  0  0  0  0  0  0  0
    2.5355   -0.6904    3.7395 C   0  0  0  0  0  0  0  0  0  0  0  0
    1.5071    0.2704    3.4882 O   0  0  0  0  0  0  0  0  0  0  0  0
    1.2883    0.9695    2.2886 C   0  0  0  0  0  0  0  0  0  0  0  0
    0.2024    1.8514    2.2366 C   0  0  0  0  0  0  0  0  0  0  0  0
   -0.0993    2.5439    1.0610 C   0  0  0  0  0  0  0  0  0  0  0  0
    0.6943    2.3744   -0.0828 C   0  0  0  0  0  0  0  0  0  0  0  0
    0.2635    2.9677   -1.3954 C   0  0  0  0  0  0  0  0  0  0  0  0
   -0.6432    2.0399   -2.0672 N   0  0  0  0  0  0  0  0  0  0  0  0
   -0.1554    0.9055   -2.7942 C   0  0  0  0  0  0  0  0  0  0  0  0
    0.9699    0.9495   -3.3599 O   0  0  0  0  0  0  0  0  0  0  0  0
   -0.9446   -0.2906   -2.8821 N   0  0  0  0  0  0  0  0  0  0  0  0
   -1.7927   -0.4852   -4.0612 C   0  0  0  0  0  0  0  0  0  0  0  0
   -3.1452    0.1269   -3.8252 C   0  0  0  0  0  0  0  0  0  0  0  0
   -3.3839    1.4691   -4.1633 C   0  0  0  0  0  0  0  0  0  0  0  0
   -4.6260    2.0525   -3.8954 C   0  0  0  0  0  0  0  0  0  0  0  0
   -5.6343    1.3034   -3.2820 C   0  0  0  0  0  0  0  0  0  0  0  0
   -6.8372    1.8715   -3.0203 F   0  0  0  0  0  0  0  0  0  0  0  0
   -5.4001   -0.0299   -2.9330 C   0  0  0  0  0  0  0  0  0  0  0  0
   -4.1593   -0.6166   -3.1994 C   0  0  0  0  0  0  0  0  0  0  0  0
   -0.9125   -1.3002   -1.8055 C   0  0  0  0  0  0  0  0  0  0  0  0
    0.5217   -1.8101   -1.5719 C   0  0  0  0  0  0  0  0  0  0  0  0
    0.5678   -2.7764   -0.3834 C   0  0  0  0  0  0  0  0  0  0  0  0
    0.0394   -2.1196    0.8285 N   0  0  0  0  0  0  0  0  0  0  0  0
    0.1753   -3.0144    1.9871 C   0  0  0  0  0  0  0  0  0  0  0  0
   -1.3776   -1.7534    0.6365 C   0  0  0  0  0  0  0  0  0  0  0  0
   -1.5096   -0.7391   -0.5031 C   0  0  0  0  0  0  0  0  0  0  0  0
    1.7994    1.5128   -0.0287 C   0  0  0  0  0  0  0  0  0  0  0  0
    2.0954    0.8128    1.1441 C   0  0  0  0  0  0  0  0  0  0  0  0
    4.2219   -1.8449    5.5956 H   0  0  0  0  0  0  0  0  0  0  0  0
    5.1240   -1.6870    4.0374 H   0  0  0  0  0  0  0  0  0  0  0  0
    5.5732   -0.6683    5.4616 H   0  0  0  0  0  0  0  0  0  0  0  0
    3.3633    0.4785    5.3627 H   0  0  0  0  0  0  0  0  0  0  0  0
    5.3180    1.4172    4.1178 H   0  0  0  0  0  0  0  0  0  0  0  0
    4.8304    0.5039    2.6411 H   0  0  0  0  0  0  0  0  0  0  0  0
    3.7705    1.8133    3.3098 H   0  0  0  0  0  0  0  0  0  0  0  0
    2.8403   -1.2303    2.8199 H   0  0  0  0  0  0  0  0  0  0  0  0
    2.1013   -1.4591    4.4140 H   0  0  0  0  0  0  0  0  0  0  0  0
   -0.4291    1.9797    3.1066 H   0  0  0  0  0  0  0  0  0  0  0  0
   -0.9727    3.1836    1.0318 H   0  0  0  0  0  0  0  0  0  0  0  0
    1.1447    3.1841   -2.0378 H   0  0  0  0  0  0  0  0  0  0  0  0
   -0.2597    3.9335   -1.2253 H   0  0  0  0  0  0  0  0  0  0  0  0
   -1.6491    2.0504   -1.7845 H   0  0  0  0  0  0  0  0  0  0  0  0
   -1.3133   -0.0307   -4.9565 H   0  0  0  0  0  0  0  0  0  0  0  0
   -1.8988   -1.5685   -4.2884 H   0  0  0  0  0  0  0  0  0  0  0  0
   -2.6066    2.0643   -4.6266 H   0  0  0  0  0  0  0  0  0  0  0  0
   -4.8041    3.0870   -4.1593 H   0  0  0  0  0  0  0  0  0  0  0  0
   -6.1780   -0.6085   -2.4517 H   0  0  0  0  0  0  0  0  0  0  0  0
   -3.9870   -1.6466   -2.9129 H   0  0  0  0  0  0  0  0  0  0  0  0
   -1.5332   -2.1765   -2.1005 H   0  0  0  0  0  0  0  0  0  0  0  0
    0.8846   -2.3292   -2.4852 H   0  0  0  0  0  0  0  0  0  0  0  0
    1.2061   -0.9617   -1.3615 H   0  0  0  0  0  0  0  0  0  0  0  0
   -0.0123   -3.6970   -0.6241 H   0  0  0  0  0  0  0  0  0  0  0  0
    1.6287   -3.0702   -0.2222 H   0  0  0  0  0  0  0  0  0  0  0  0
   -0.4063   -3.9525    1.8441 H   0  0  0  0  0  0  0  0  0  0  0  0
   -0.1799   -2.5027    2.9075 H   0  0  0  0  0  0  0  0  0  0  0  0
    1.2441   -3.2717    2.1487 H   0  0  0  0  0  0  0  0  0  0  0  0
   -1.9973   -2.6527    0.4142 H   0  0  0  0  0  0  0  0  0  0  0  0
   -1.7748   -1.2811    1.5624 H   0  0  0  0  0  0  0  0  0  0  0  0
   -0.9796    0.1835   -0.2033 H   0  0  0  0  0  0  0  0  0  0  0  0
   -2.5815   -0.4904   -0.6572 H   0  0  0  0  0  0  0  0  0  0  0  0
    2.4119    1.3538   -0.9074 H   0  0  0  0  0  0  0  0  0  0  0  0
    2.9440    0.1473    1.1335 H   0  0  0  0  0  0  0  0  0  0  0  0
  1  2  1  0
  2  3  1  0
  2  4  1  0
  4  5  1  0
  5  6  1  0
  6  7  2  0
  7  8  1  0
  8  9  2  0
  9 10  1  0
 10 11  1  0
 11 12  1  0
 12 13  2  0
 12 14  1  0
 14 15  1  0
 15 16  1  0
 16 17  2  0
 17 18  1  0
 18 19  2  0
 19 20  1  0
 19 21  1  0
 21 22  2  0
 14 23  1  0
 23 24  1  0
 24 25  1  0
 25 26  1  0
 26 27  1  0
 26 28  1  0
 28 29  1  0
  9 30  1  0
 30 31  2  0
 31  6  1  0
 22 16  1  0
 29 23  1  0
  1 32  1  0
  1 33  1  0
  1 34  1  0
  2 35  1  0
  3 36  1  0
  3 37  1  0
  3 38  1  0
  4 39  1  0
  4 40  1  0
  7 41  1  0
  8 42  1  0
 10 43  1  0
 10 44  1  0
 11 45  1  0
 15 46  1  0
 15 47  1  0
 17 48  1  0
 18 49  1  0
 21 50  1  0
 22 51  1  0
 23 52  1  0
 24 53  1  0
 24 54  1  0
 25 55  1  0
 25 56  1  0
 27 57  1  0
 27 58  1  0
 27 59  1  0
 28 60  1  0
 28 61  1  0
 29 62  1  0
 29 63  1  0
 30 64  1  0
 31 65  1  0
M  END
$$$$
