
     RDKit          3D

 58 60  0  0  0  0  0  0  0  0999 V2000
   -5.3515   -0.4817   -0.8324 C   0  0  0  0  0  0  0  0  0  0  0  0
   -4.6022   -0.1006    0.4414 C   0  0  0  0  0  0  0  0  0  0  0  0
   -3.1250   -0.4339    0.3281 C   0  0  0  0  0  0  0  0  0  0  0  0
   -2.1785    0.5226    0.1168 C   0  0  0  0  0  0  0  0  0  0  0  0
   -2.5399    1.9400   -0.0977 C   0  0  0  0  0  0  0  0  0  0  0  0
   -3.0680    2.3613   -1.3274 C   0  0  0  0  0  0  0  0  0  0  0  0
   -3.3953    3.7056   -1.5276 C   0  0  0  0  0  0  0  0  0  0  0  0
   -3.1888    4.6397   -0.5068 C   0  0  0  0  0  0  0  0  0  0  0  0
   -3.5203    5.9758   -0.7197 O   0  0  0  0  0  0  0  0  0  0  0  0
   -2.6478    4.2238    0.7178 C   0  0  0  0  0  0  0  0  0  0  0  0
   -2.3198    2.8798    0.9199 C   0  0  0  0  0  0  0  0  0  0  0  0
   -0.7273    0.2089    0.1419 C   0  0  0  0  0  0  0  0  0  0  0  0
    0.0883    0.5694   -0.9416 C   0  0  0  0  0  0  0  0  0  0  0  0
    1.4562    0.2826   -0.9236 C   0  0  0  0  0  0  0  0  0  0  0  0
    2.0319   -0.3615    0.1880 C   0  0  0  0  0  0  0  0  0  0  0  0
    3.3976   -0.6732    0.2536 O   0  0  0  0  0  0  0  0  0  0  0  0
    4.3431   -0.3760   -0.7714 C   0  0  0  0  0  0  0  0  0  0  0  0
    5.7303   -0.8660   -0.3540 C   0  0  0  0  0  0  0  0  0  0  0  0
    6.1181   -0.3146    0.9633 N   0  0  0  0  0  0  0  0  0  0  0  0
    7.1421   -1.1683    1.5873 C   0  0  0  0  0  0  0  0  0  0  0  0
    6.6403    1.0572    0.8317 C   0  0  0  0  0  0  0  0  0  0  0  0
    1.2193   -0.7053    1.2740 C   0  0  0  0  0  0  0  0  0  0  0  0
   -0.1479   -0.4182    1.2571 C   0  0  0  0  0  0  0  0  0  0  0  0
   -2.7546   -1.8709    0.3947 C   0  0  0  0  0  0  0  0  0  0  0  0
   -2.1217   -2.4913   -0.6967 C   0  0  0  0  0  0  0  0  0  0  0  0
   -1.7708   -3.8428   -0.6326 C   0  0  0  0  0  0  0  0  0  0  0  0
   -2.0540   -4.5860    0.5164 C   0  0  0  0  0  0  0  0  0  0  0  0
   -2.6900   -3.9789    1.6026 C   0  0  0  0  0  0  0  0  0  0  0  0
   -3.0424   -2.6271    1.5432 C   0  0  0  0  0  0  0  0  0  0  0  0
   -4.9366    0.0585   -1.7074 H   0  0  0  0  0  0  0  0  0  0  0  0
   -6.4239   -0.2139   -0.7266 H   0  0  0  0  0  0  0  0  0  0  0  0
   -5.2770   -1.5754   -1.0121 H   0  0  0  0  0  0  0  0  0  0  0  0
   -5.0458   -0.6605    1.2914 H   0  0  0  0  0  0  0  0  0  0  0  0
   -4.7768    0.9730    0.6620 H   0  0  0  0  0  0  0  0  0  0  0  0
   -3.2118    1.6531   -2.1331 H   0  0  0  0  0  0  0  0  0  0  0  0
   -3.8043    4.0229   -2.4784 H   0  0  0  0  0  0  0  0  0  0  0  0
   -3.3818    6.6766   -0.0009 H   0  0  0  0  0  0  0  0  0  0  0  0
   -2.4803    4.9404    1.5117 H   0  0  0  0  0  0  0  0  0  0  0  0
   -1.9008    2.5696    1.8694 H   0  0  0  0  0  0  0  0  0  0  0  0
   -0.3377    1.0606   -1.8077 H   0  0  0  0  0  0  0  0  0  0  0  0
    2.0556    0.5646   -1.7783 H   0  0  0  0  0  0  0  0  0  0  0  0
    4.0485   -0.8939   -1.7100 H   0  0  0  0  0  0  0  0  0  0  0  0
    4.3625    0.7168   -0.9649 H   0  0  0  0  0  0  0  0  0  0  0  0
    5.6785   -1.9779   -0.3119 H   0  0  0  0  0  0  0  0  0  0  0  0
    6.4745   -0.6036   -1.1400 H   0  0  0  0  0  0  0  0  0  0  0  0
    8.0442   -1.2532    0.9406 H   0  0  0  0  0  0  0  0  0  0  0  0
    7.4403   -0.7555    2.5753 H   0  0  0  0  0  0  0  0  0  0  0  0
    6.7310   -2.1838    1.7734 H   0  0  0  0  0  0  0  0  0  0  0  0
    6.9195    1.4582    1.8300 H   0  0  0  0  0  0  0  0  0  0  0  0
    7.5342    1.0900    0.1694 H   0  0  0  0  0  0  0  0  0  0  0  0
    5.8615    1.7343    0.4254 H   0  0  0  0  0  0  0  0  0  0  0  0
    1.6514   -1.1943    2.1379 H   0  0  0  0  0  0  0  0  0  0  0  0
   -0.7536   -0.6798    2.1158 H   0  0  0  0  0  0  0  0  0  0  0  0
   -1.9028   -1.9279   -1.5955 H   0  0  0  0  0  0  0  0  0  0  0  0
   -1.2806   -4.3144   -1.4744 H   0  0  0  0  0  0  0  0  0  0  0  0
   -1.7813   -5.6322    0.5648 H   0  0  0  0  0  0  0  0  0  0  0  0
   -2.9073   -4.5553    2.4925 H   0  0  0  0  0  0  0  0  0  0  0  0
   -3.5210   -2.1675    2.3987 H   0  0  0  0  0  0  0  0  0  0  0  0
  1  2  1  0
  2  3  1  0
  3  4  2  0
  4  5  1  0
  5  6  2  0
  6  7  1  0
  7  8  2  0
  8  9  1  0
  8 10  1  0
 10 11  2  0
  4 12  1  0
 12 13  2  0
 13 14  1  0
 14 15  2  0
 15 16  1  0
 16 17  1  0
 17 18  1  0
 18 19  1  0
 19 20  1  0
 19 21  1  0
 15 22  1  0
 22 23  2  0
  3 24  1  0
 24 25  2  0
 25 26  1  0
 26 27  2  0
 27 28  1  0
 28 29  2  0
 11  5  1  0
 23 12  1  0
 29 24  1  0
  1 30  1  0
  1 31  1  0
  1 32  1  0
  2 33  1  0
  2 34  1  0
  6 35  1  0
  7 36  1  0
  9 37  1  0
 10 38  1  0
 11 39  1  0
 13 40  1  0
 14 41  1  0
 17 42  1  0
 17 43  1  0
 18 44  1  0
 18 45  1  0
 20 46  1  0
 20 47  1  0
 20 48  1  0
 21 49  1  0
 21 50  1  0
 21 51  1  0
 22 52  1  0
 23 53  1  0
 25 54  1  0
 26 55  1  0
 27 56  1  0
 28 57  1  0
 29 58  1  0
M  END
$$$$
