
     RDKit          3D

 41 43  0  0  0  0  0  0  0  0999 V2000
    5.5180    1.6769    0.5773 N   0  0  0  0  0  0  0  0  0  0  0  0
    5.1090    0.0029    0.4389 S   0  0  0  0  0  6  0  0  0  0  0  0
    5.9572   -0.6433   -0.6200 O   0  0  0  0  0  0  0  0  0  0  0  0
    5.4024   -0.6593    1.7569 O   0  0  0  0  0  0  0  0  0  0  0  0
    3.3916   -0.1953    0.0304 C   0  0  0  0  0  0  0  0  0  0  0  0
    2.6527   -1.1324    0.7718 C   0  0  0  0  0  0  0  0  0  0  0  0
    1.2930   -1.3282    0.5289 C   0  0  0  0  0  0  0  0  0  0  0  0
    0.6373   -0.5795   -0.4522 C   0  0  0  0  0  0  0  0  0  0  0  0
   -0.7691   -0.7582   -0.6904 N   0  0  0  0  0  0  0  0  0  0  0  0
   -1.6534   -1.3656    0.3171 C   0  0  0  0  0  0  0  0  0  0  0  0
   -3.0989   -1.4744   -0.2019 C   0  0  0  0  0  0  0  0  0  0  0  0
   -3.7335   -0.1178   -0.3832 C   0  0  0  0  0  0  0  0  0  0  0  0
   -4.1684    0.6129    0.7357 C   0  0  0  0  0  0  0  0  0  0  0  0
   -4.7406    1.8782    0.5726 C   0  0  0  0  0  0  0  0  0  0  0  0
   -4.8816    2.4237   -0.7062 C   0  0  0  0  0  0  0  0  0  0  0  0
   -4.4508    1.7046   -1.8242 C   0  0  0  0  0  0  0  0  0  0  0  0
   -3.8782    0.4386   -1.6658 C   0  0  0  0  0  0  0  0  0  0  0  0
   -1.1675   -2.6998    0.6881 N   0  0  0  0  0  0  0  0  0  0  0  0
    0.3940   -2.5373    1.4262 S   0  0  0  0  0  6  0  0  0  0  0  0
    0.2344   -2.1018    2.8556 O   0  0  0  0  0  0  0  0  0  0  0  0
    1.1109   -3.8570    1.3719 O   0  0  0  0  0  0  0  0  0  0  0  0
    1.3648    0.3380   -1.2177 C   0  0  0  0  0  0  0  0  0  0  0  0
    2.7474    0.5320   -1.0126 C   0  0  0  0  0  0  0  0  0  0  0  0
    3.4659    1.5675   -1.8606 C   0  0  0  0  0  0  0  0  0  0  0  0
    4.7062    1.1100   -2.2606 F   0  0  0  0  0  0  0  0  0  0  0  0
    2.7505    1.8626   -3.0091 F   0  0  0  0  0  0  0  0  0  0  0  0
    3.6150    2.7337   -1.1344 F   0  0  0  0  0  0  0  0  0  0  0  0
    6.5211    1.7248    0.8650 H   0  0  0  0  0  0  0  0  0  0  0  0
    4.9574    2.0635    1.3695 H   0  0  0  0  0  0  0  0  0  0  0  0
    3.1332   -1.7203    1.5432 H   0  0  0  0  0  0  0  0  0  0  0  0
   -1.1713   -0.3941   -1.5836 H   0  0  0  0  0  0  0  0  0  0  0  0
   -1.6610   -0.7201    1.2249 H   0  0  0  0  0  0  0  0  0  0  0  0
   -3.7055   -2.0552    0.5274 H   0  0  0  0  0  0  0  0  0  0  0  0
   -3.1116   -2.0440   -1.1573 H   0  0  0  0  0  0  0  0  0  0  0  0
   -4.0626    0.2025    1.7324 H   0  0  0  0  0  0  0  0  0  0  0  0
   -5.0737    2.4365    1.4380 H   0  0  0  0  0  0  0  0  0  0  0  0
   -5.3241    3.4036   -0.8307 H   0  0  0  0  0  0  0  0  0  0  0  0
   -4.5595    2.1285   -2.8141 H   0  0  0  0  0  0  0  0  0  0  0  0
   -3.5473   -0.1052   -2.5418 H   0  0  0  0  0  0  0  0  0  0  0  0
   -1.0396   -3.2620   -0.1854 H   0  0  0  0  0  0  0  0  0  0  0  0
    0.8363    0.9098   -1.9700 H   0  0  0  0  0  0  0  0  0  0  0  0
  1  2  1  0
  2  3  2  0
  2  4  2  0
  2  5  1  0
  5  6  2  0
  6  7  1  0
  7  8  2  0
  8  9  1  0
  9 10  1  0
 10 11  1  0
 11 12  1  0
 12 13  2  0
 13 14  1  0
 14 15  2  0
 15 16  1  0
 16 17  2  0
 10 18  1  0
 18 19  1  0
 19 20  2  0
 19 21  2  0
  8 22  1  0
 22 23  2  0
 23 24  1  0
 24 25  1  0
 24 26  1  0
 24 27  1  0
 23  5  1  0
 19  7  1  0
 17 12  1  0
  1 28  1  0
  1 29  1  0
  6 30  1  0
  9 31  1  0
 10 32  1  0
 11 33  1  0
 11 34  1  0
 13 35  1  0
 14 36  1  0
 15 37  1  0
 16 38  1  0
 17 39  1  0
 18 40  1  0
 22 41  1  0
M  END
$$$$
