
     RDKit          3D

 44 46  0  0  0  0  0  0  0  0999 V2000
    2.5707   -2.8975    0.3594 C   0  0  0  0  0  0  0  0  0  0  0  0
    2.4871   -2.0212   -0.8893 C   0  0  0  0  0  0  0  0  0  0  0  0
    2.6736   -0.5962   -0.5455 N   0  0  0  0  0  0  0  0  0  0  0  0
    3.9586   -0.1274   -0.6231 C   0  0  0  0  0  0  0  0  0  0  0  0
    4.2775    1.2140   -0.3858 C   0  0  0  0  0  0  0  0  0  0  0  0
    5.6945    1.6571   -0.5020 C   0  0  0  0  0  0  0  0  0  0  0  0
    6.6866    0.7452   -0.8549 O   0  0  0  0  0  0  0  0  0  0  0  0
    6.0193    2.8554   -0.2832 O   0  0  0  0  0  0  0  0  0  0  0  0
    3.2409    2.0988   -0.0521 C   0  0  0  0  0  0  0  0  0  0  0  0
    3.4916    3.3204    0.1474 O   0  0  0  0  0  0  0  0  0  0  0  0
    1.9222    1.6249    0.0679 C   0  0  0  0  0  0  0  0  0  0  0  0
    0.8849    2.5099    0.4174 C   0  0  0  0  0  0  0  0  0  0  0  0
   -0.4193    2.0561    0.5655 C   0  0  0  0  0  0  0  0  0  0  0  0
   -1.4002    2.9401    0.8779 F   0  0  0  0  0  0  0  0  0  0  0  0
   -0.7172    0.7055    0.3849 C   0  0  0  0  0  0  0  0  0  0  0  0
   -2.0654    0.2438    0.5660 N   0  0  0  0  0  0  0  0  0  0  0  0
   -2.6377    0.2036    1.9146 C   0  0  0  0  0  0  0  0  0  0  0  0
   -4.0504   -0.3899    1.8828 C   0  0  0  0  0  0  0  0  0  0  0  0
   -4.8476    0.2316    0.8168 N   0  0  0  0  0  0  0  0  0  0  0  0
   -4.2702    0.0725   -0.5394 C   0  0  0  0  0  0  0  0  0  0  0  0
   -5.1316   -0.9030   -1.3416 C   0  0  0  0  0  0  0  0  0  0  0  0
   -2.7884   -0.3763   -0.5467 C   0  0  0  0  0  0  0  0  0  0  0  0
    0.2987   -0.1989    0.0350 C   0  0  0  0  0  0  0  0  0  0  0  0
   -0.0538   -1.5048   -0.0418 F   0  0  0  0  0  0  0  0  0  0  0  0
    1.6416    0.2464   -0.1584 C   0  0  0  0  0  0  0  0  0  0  0  0
    3.5931   -2.8420    0.7898 H   0  0  0  0  0  0  0  0  0  0  0  0
    2.3538   -3.9526    0.0905 H   0  0  0  0  0  0  0  0  0  0  0  0
    1.8456   -2.5662    1.1304 H   0  0  0  0  0  0  0  0  0  0  0  0
    1.5506   -2.1881   -1.4562 H   0  0  0  0  0  0  0  0  0  0  0  0
    3.2752   -2.3621   -1.5983 H   0  0  0  0  0  0  0  0  0  0  0  0
    4.7596   -0.8092   -0.8869 H   0  0  0  0  0  0  0  0  0  0  0  0
    7.6542    1.0337   -0.9366 H   0  0  0  0  0  0  0  0  0  0  0  0
    1.0796    3.5635    0.5778 H   0  0  0  0  0  0  0  0  0  0  0  0
   -1.9926   -0.4116    2.5783 H   0  0  0  0  0  0  0  0  0  0  0  0
   -2.6890    1.2335    2.3276 H   0  0  0  0  0  0  0  0  0  0  0  0
   -4.5454   -0.2185    2.8630 H   0  0  0  0  0  0  0  0  0  0  0  0
   -4.0009   -1.4892    1.7218 H   0  0  0  0  0  0  0  0  0  0  0  0
   -4.9389    1.2531    1.0315 H   0  0  0  0  0  0  0  0  0  0  0  0
   -4.3179    1.0555   -1.0627 H   0  0  0  0  0  0  0  0  0  0  0  0
   -4.7383   -1.0032   -2.3759 H   0  0  0  0  0  0  0  0  0  0  0  0
   -5.1388   -1.9029   -0.8570 H   0  0  0  0  0  0  0  0  0  0  0  0
   -6.1754   -0.5270   -1.3974 H   0  0  0  0  0  0  0  0  0  0  0  0
   -2.3241   -0.0951   -1.5182 H   0  0  0  0  0  0  0  0  0  0  0  0
   -2.7164   -1.4815   -0.4439 H   0  0  0  0  0  0  0  0  0  0  0  0
  1  2  1  0
  2  3  1  0
  3  4  1  0
  4  5  2  0
  5  6  1  0
  6  7  1  0
  6  8  2  0
  5  9  1  0
  9 10  2  0
  9 11  1  0
 11 12  2  0
 12 13  1  0
 13 14  1  0
 13 15  2  0
 15 16  1  0
 16 17  1  0
 17 18  1  0
 18 19  1  0
 19 20  1  0
 20 21  1  0
 20 22  1  0
 15 23  1  0
 23 24  1  0
 23 25  2  0
 25  3  1  0
 25 11  1  0
 22 16  1  0
  1 26  1  0
  1 27  1  0
  1 28  1  0
  2 29  1  0
  2 30  1  0
  4 31  1  0
  7 32  1  0
 12 33  1  0
 17 34  1  0
 17 35  1  0
 18 36  1  0
 18 37  1  0
 19 38  1  0
 20 39  1  0
 21 40  1  0
 21 41  1  0
 21 42  1  0
 22 43  1  0
 22 44  1  0
M  END
$$$$
