
     RDKit          3D

 28 28  0  0  0  0  0  0  0  0999 V2000
    5.2778    0.3016   -0.1326 C   0  0  0  0  0  0  0  0  0  0  0  0
    3.8689    0.3859   -0.6638 C   0  0  0  0  0  0  0  0  0  0  0  0
    3.6872    0.6781   -2.0169 O   0  0  0  0  0  0  0  0  0  0  0  0
    2.7970    0.2000    0.1417 C   0  0  0  0  0  0  0  0  0  0  0  0
    2.9885   -0.0749    1.5503 C   0  0  0  0  0  0  0  0  0  0  0  0
    3.1411   -0.2948    2.6763 N   0  0  0  0  0  0  0  0  0  0  0  0
    1.3995    0.2529   -0.3686 C   0  0  0  0  0  0  0  0  0  0  0  0
    1.1712    0.1669   -1.6064 O   0  0  0  0  0  0  0  0  0  0  0  0
    0.3005    0.4222    0.5447 N   0  0  0  0  0  0  0  0  0  0  0  0
   -1.0704    0.1454    0.2087 C   0  0  0  0  0  0  0  0  0  0  0  0
   -2.0922    0.8873    0.8181 C   0  0  0  0  0  0  0  0  0  0  0  0
   -3.4332    0.6228    0.5258 C   0  0  0  0  0  0  0  0  0  0  0  0
   -3.7772   -0.3889   -0.3867 C   0  0  0  0  0  0  0  0  0  0  0  0
   -2.7551   -1.1652   -0.9588 C   0  0  0  0  0  0  0  0  0  0  0  0
   -1.4141   -0.8993   -0.6666 C   0  0  0  0  0  0  0  0  0  0  0  0
   -5.2247   -0.7081   -0.6635 C   0  0  0  0  0  0  0  0  0  0  0  0
   -5.3758   -1.2248   -1.9387 F   0  0  0  0  0  0  0  0  0  0  0  0
   -5.6692   -1.6398    0.2558 F   0  0  0  0  0  0  0  0  0  0  0  0
   -6.0041    0.4315   -0.5636 F   0  0  0  0  0  0  0  0  0  0  0  0
    6.0170    0.4588   -0.9452 H   0  0  0  0  0  0  0  0  0  0  0  0
    5.4582   -0.7009    0.3100 H   0  0  0  0  0  0  0  0  0  0  0  0
    5.4388    1.0826    0.6404 H   0  0  0  0  0  0  0  0  0  0  0  0
    4.4704    0.8277   -2.6416 H   0  0  0  0  0  0  0  0  0  0  0  0
    0.4935    0.8649    1.4715 H   0  0  0  0  0  0  0  0  0  0  0  0
   -1.8479    1.6760    1.5188 H   0  0  0  0  0  0  0  0  0  0  0  0
   -4.2016    1.2072    1.0163 H   0  0  0  0  0  0  0  0  0  0  0  0
   -2.9935   -1.9850   -1.6248 H   0  0  0  0  0  0  0  0  0  0  0  0
   -0.6506   -1.5299   -1.1023 H   0  0  0  0  0  0  0  0  0  0  0  0
  1  2  1  0
  2  3  1  0
  2  4  2  0
  4  5  1  0
  5  6  3  0
  4  7  1  0
  7  8  2  0
  7  9  1  0
  9 10  1  0
 10 11  2  0
 11 12  1  0
 12 13  2  0
 13 14  1  0
 14 15  2  0
 13 16  1  0
 16 17  1  0
 16 18  1  0
 16 19  1  0
 15 10  1  0
  1 20  1  0
  1 21  1  0
  1 22  1  0
  3 23  1  0
  9 24  1  0
 11 25  1  0
 12 26  1  0
 14 27  1  0
 15 28  1  0
M  END
$$$$
