
     RDKit          3D

 35 35  0  0  0  0  0  0  0  0999 V2000
    3.7783   -0.9533    0.6120 C   0  0  0  0  0  0  0  0  0  0  0  0
    3.7595    0.5255    0.9990 C   0  0  0  0  0  0  0  0  0  0  0  0
    2.4383    0.9456    1.6700 C   0  0  0  0  0  0  0  0  0  0  0  0
    1.4078    1.5442    0.7018 C   0  0  0  0  0  0  0  0  0  0  0  0
    0.8869    0.5336   -0.2176 N   0  0  0  0  0  0  0  0  0  0  0  0
    1.1998    0.3462   -1.4699 C   0  0  0  0  0  0  0  0  0  0  0  0
    2.1323    1.1454   -2.1370 O   0  0  0  0  0  0  0  0  0  0  0  0
    0.5762   -0.7148   -2.1994 N   0  0  0  0  0  0  0  0  0  0  0  0
   -0.5105   -1.8396   -1.4517 S   0  0  0  0  0  6  0  0  0  0  0  0
   -1.0409   -2.7878   -2.4900 O   0  0  0  0  0  0  0  0  0  0  0  0
    0.2317   -2.6323   -0.4121 O   0  0  0  0  0  0  0  0  0  0  0  0
   -1.8596   -0.9707   -0.7268 C   0  0  0  0  0  0  0  0  0  0  0  0
   -2.8030   -0.3418   -1.5495 C   0  0  0  0  0  0  0  0  0  0  0  0
   -3.8652    0.3710   -0.9852 C   0  0  0  0  0  0  0  0  0  0  0  0
   -3.9908    0.4648    0.4081 C   0  0  0  0  0  0  0  0  0  0  0  0
   -5.0757    1.1957    0.9856 N   0  0  0  0  0  0  0  0  0  0  0  0
   -3.0436   -0.1607    1.2313 C   0  0  0  0  0  0  0  0  0  0  0  0
   -1.9823   -0.8746    0.6668 C   0  0  0  0  0  0  0  0  0  0  0  0
    2.9726   -1.1909   -0.1092 H   0  0  0  0  0  0  0  0  0  0  0  0
    3.6539   -1.5882    1.5150 H   0  0  0  0  0  0  0  0  0  0  0  0
    4.7531   -1.1996    0.1410 H   0  0  0  0  0  0  0  0  0  0  0  0
    4.5908    0.6938    1.7180 H   0  0  0  0  0  0  0  0  0  0  0  0
    3.9718    1.1528    0.1083 H   0  0  0  0  0  0  0  0  0  0  0  0
    1.9846    0.0929    2.2218 H   0  0  0  0  0  0  0  0  0  0  0  0
    2.6708    1.7261    2.4272 H   0  0  0  0  0  0  0  0  0  0  0  0
    1.8060    2.4367    0.1807 H   0  0  0  0  0  0  0  0  0  0  0  0
    0.5540    1.9079    1.3120 H   0  0  0  0  0  0  0  0  0  0  0  0
    2.6404    1.9060   -1.7100 H   0  0  0  0  0  0  0  0  0  0  0  0
    0.8076   -0.8415   -3.2095 H   0  0  0  0  0  0  0  0  0  0  0  0
   -2.7131   -0.4004   -2.6270 H   0  0  0  0  0  0  0  0  0  0  0  0
   -4.5876    0.8520   -1.6326 H   0  0  0  0  0  0  0  0  0  0  0  0
   -5.7856    1.6658    0.3807 H   0  0  0  0  0  0  0  0  0  0  0  0
   -5.1770    1.2721    2.0223 H   0  0  0  0  0  0  0  0  0  0  0  0
   -3.1264   -0.0926    2.3087 H   0  0  0  0  0  0  0  0  0  0  0  0
   -1.2552   -1.3432    1.3172 H   0  0  0  0  0  0  0  0  0  0  0  0
  1  2  1  0
  2  3  1  0
  3  4  1  0
  4  5  1  0
  5  6  2  3
  6  7  1  0
  6  8  1  0
  8  9  1  0
  9 10  2  0
  9 11  2  0
  9 12  1  0
 12 13  2  0
 13 14  1  0
 14 15  2  0
 15 16  1  0
 15 17  1  0
 17 18  2  0
 18 12  1  0
  1 19  1  0
  1 20  1  0
  1 21  1  0
  2 22  1  0
  2 23  1  0
  3 24  1  0
  3 25  1  0
  4 26  1  0
  4 27  1  0
  7 28  1  0
  8 29  1  0
 13 30  1  0
 14 31  1  0
 16 32  1  0
 16 33  1  0
 17 34  1  0
 18 35  1  0
M  END
$$$$
