
     RDKit          3D

 38 41  0  0  0  0  0  0  0  0999 V2000
    5.8164    0.7001   -0.8610 C   0  0  0  0  0  0  0  0  0  0  0  0
    4.3275    0.6658   -0.6813 C   0  0  0  0  0  0  0  0  0  0  0  0
    3.5910    1.8612   -0.6621 C   0  0  0  0  0  0  0  0  0  0  0  0
    2.2075    1.8353   -0.4637 C   0  0  0  0  0  0  0  0  0  0  0  0
    1.5518    0.6190   -0.2532 C   0  0  0  0  0  0  0  0  0  0  0  0
    0.1222    0.5856   -0.1358 N   0  0  0  0  0  0  0  0  0  0  0  0
   -0.5128   -0.4915    0.2272 C   0  0  0  0  0  0  0  0  0  0  0  0
   -1.9086   -0.6590    0.0336 N   0  0  0  0  0  0  0  0  0  0  0  0
   -2.2051   -2.0868   -0.0094 C   0  0  0  0  0  0  0  0  0  0  0  0
   -0.8413   -2.8060    0.0321 C   0  0  0  0  0  0  0  0  0  0  0  0
    0.1625   -1.7719    0.5804 C   0  0  2  0  0  0  0  0  0  0  0  0
    0.2427   -1.8548    1.9813 O   0  0  0  0  0  0  0  0  0  0  0  0
    1.5481   -1.8436   -0.0227 C   0  0  0  0  0  0  0  0  0  0  0  0
    2.0970   -2.9602   -0.2287 O   0  0  0  0  0  0  0  0  0  0  0  0
    2.2830   -0.5830   -0.2550 C   0  0  0  0  0  0  0  0  0  0  0  0
    3.6703   -0.5563   -0.4658 C   0  0  0  0  0  0  0  0  0  0  0  0
   -2.8964    0.3927    0.0163 C   0  0  0  0  0  0  0  0  0  0  0  0
   -2.6681    1.6046    0.6965 C   0  0  0  0  0  0  0  0  0  0  0  0
   -3.6317    2.6175    0.6842 C   0  0  0  0  0  0  0  0  0  0  0  0
   -4.8346    2.4321    0.0002 C   0  0  0  0  0  0  0  0  0  0  0  0
   -5.0783    1.2311   -0.6690 C   0  0  0  0  0  0  0  0  0  0  0  0
   -4.1183    0.2144   -0.6594 C   0  0  0  0  0  0  0  0  0  0  0  0
    6.1164    1.5671   -1.4873 H   0  0  0  0  0  0  0  0  0  0  0  0
    6.3060    0.7837    0.1316 H   0  0  0  0  0  0  0  0  0  0  0  0
    6.1715   -0.2248   -1.3636 H   0  0  0  0  0  0  0  0  0  0  0  0
    4.0868    2.8126   -0.8102 H   0  0  0  0  0  0  0  0  0  0  0  0
    1.6454    2.7606   -0.4768 H   0  0  0  0  0  0  0  0  0  0  0  0
   -2.7461   -2.3521   -0.9421 H   0  0  0  0  0  0  0  0  0  0  0  0
   -2.8146   -2.3662    0.8771 H   0  0  0  0  0  0  0  0  0  0  0  0
   -0.5599   -3.1016   -1.0035 H   0  0  0  0  0  0  0  0  0  0  0  0
   -0.8888   -3.7212    0.6614 H   0  0  0  0  0  0  0  0  0  0  0  0
    0.6451   -2.7349    2.2058 H   0  0  0  0  0  0  0  0  0  0  0  0
    4.2388   -1.4786   -0.4557 H   0  0  0  0  0  0  0  0  0  0  0  0
   -1.7560    1.7624    1.2563 H   0  0  0  0  0  0  0  0  0  0  0  0
   -3.4477    3.5449    1.2112 H   0  0  0  0  0  0  0  0  0  0  0  0
   -5.5797    3.2171   -0.0076 H   0  0  0  0  0  0  0  0  0  0  0  0
   -6.0123    1.0873   -1.1969 H   0  0  0  0  0  0  0  0  0  0  0  0
   -4.3295   -0.7025   -1.1915 H   0  0  0  0  0  0  0  0  0  0  0  0
  1  2  1  0
  2  3  2  0
  3  4  1  0
  4  5  2  0
  5  6  1  0
  6  7  2  0
  7  8  1  0
  8  9  1  0
  9 10  1  0
 10 11  1  0
 11 12  1  1
 11 13  1  0
 13 14  2  0
 13 15  1  0
 15 16  2  0
  8 17  1  0
 17 18  2  0
 18 19  1  0
 19 20  2  0
 20 21  1  0
 21 22  2  0
 16  2  1  0
 22 17  1  0
 15  5  1  0
 11  7  1  0
  1 23  1  0
  1 24  1  0
  1 25  1  0
  3 26  1  0
  4 27  1  0
  9 28  1  0
  9 29  1  0
 10 30  1  0
 10 31  1  0
 12 32  1  0
 16 33  1  0
 18 34  1  0
 19 35  1  0
 20 36  1  0
 21 37  1  0
 22 38  1  0
M  END
$$$$
