
     RDKit          3D

 57 59  0  0  0  0  0  0  0  0999 V2000
   -4.3461   -3.4549   -1.2996 N   0  0  0  0  0  0  0  0  0  0  0  0
   -3.1093   -3.8430   -1.9132 C   0  0  0  0  0  0  0  0  0  0  0  0
   -2.0568   -3.0754   -1.8886 N   0  0  0  0  0  0  0  0  0  0  0  0
   -1.9461   -1.7670   -1.2456 C   0  0  0  0  0  0  0  0  0  0  0  0
   -1.7704   -1.9240    0.2721 C   0  0  0  0  0  0  0  0  0  0  0  0
   -1.7915   -0.5765    1.0156 C   0  0  0  0  0  0  0  0  0  0  0  0
   -0.5481    0.2949    0.7459 C   0  0  2  0  0  0  0  0  0  0  0  0
    0.6708   -0.4028    1.1682 N   0  0  0  0  0  0  0  0  0  0  0  0
    1.9274   -0.2303    0.4984 C   0  0  0  0  0  0  0  0  0  0  0  0
    2.0284    0.5727   -0.4697 O   0  0  0  0  0  0  0  0  0  0  0  0
    3.1403   -0.9929    0.9645 C   0  0  2  0  0  0  0  0  0  0  0  0
    4.1277   -0.0725    1.6872 C   0  0  0  0  0  0  0  0  0  0  0  0
    5.5173   -0.4816    1.1908 C   0  0  1  0  0  0  0  0  0  0  0  0
    6.1028   -1.3902    2.0873 O   0  0  0  0  0  0  0  0  0  0  0  0
    5.2816   -1.1683   -0.1520 C   0  0  0  0  0  0  0  0  0  0  0  0
    3.8799   -1.5541   -0.1608 N   0  0  0  0  0  0  0  0  0  0  0  0
    3.3514   -2.5061   -1.1057 C   0  0  0  0  0  0  0  0  0  0  0  0
    1.9596   -3.0477   -0.9804 C   0  0  0  0  0  0  0  0  0  0  0  0
    4.0600   -2.8759   -2.0807 O   0  0  0  0  0  0  0  0  0  0  0  0
   -0.6706    1.6053    1.4842 C   0  0  0  0  0  0  0  0  0  0  0  0
   -0.2336    1.6975    2.6636 O   0  0  0  0  0  0  0  0  0  0  0  0
   -1.3450    2.7690    0.8817 C   0  0  0  0  0  0  0  0  0  0  0  0
   -1.4590    3.9613    1.5193 N   0  0  0  0  0  0  0  0  0  0  0  0
   -2.1283    4.8638    0.7574 C   0  0  0  0  0  0  0  0  0  0  0  0
   -2.3999    6.1770    1.1456 C   0  0  0  0  0  0  0  0  0  0  0  0
   -3.1046    7.0108    0.2598 C   0  0  0  0  0  0  0  0  0  0  0  0
   -3.5267    6.5259   -0.9945 C   0  0  0  0  0  0  0  0  0  0  0  0
   -3.2479    5.2031   -1.3739 C   0  0  0  0  0  0  0  0  0  0  0  0
   -2.5484    4.3985   -0.4783 C   0  0  0  0  0  0  0  0  0  0  0  0
   -2.0775    2.7986   -0.6503 S   0  0  0  0  0  0  0  0  0  0  0  0
   -3.0288   -5.1024   -2.5803 N   0  0  0  0  0  0  0  0  0  0  0  0
   -5.1655   -4.1008   -1.3324 H   0  0  0  0  0  0  0  0  0  0  0  0
   -4.4766   -2.5375   -0.8216 H   0  0  0  0  0  0  0  0  0  0  0  0
   -1.0523   -1.2628   -1.6654 H   0  0  0  0  0  0  0  0  0  0  0  0
   -2.8261   -1.1350   -1.4924 H   0  0  0  0  0  0  0  0  0  0  0  0
   -2.5974   -2.5466    0.6742 H   0  0  0  0  0  0  0  0  0  0  0  0
   -0.8247   -2.4675    0.4835 H   0  0  0  0  0  0  0  0  0  0  0  0
   -1.8603   -0.7810    2.1070 H   0  0  0  0  0  0  0  0  0  0  0  0
   -2.7105   -0.0188    0.7294 H   0  0  0  0  0  0  0  0  0  0  0  0
   -0.4908    0.5040   -0.3422 H   0  0  0  0  0  0  0  0  0  0  0  0
    0.6475   -0.9694    2.0467 H   0  0  0  0  0  0  0  0  0  0  0  0
    2.8423   -1.8193    1.6465 H   0  0  0  0  0  0  0  0  0  0  0  0
    4.0336   -0.1725    2.7909 H   0  0  0  0  0  0  0  0  0  0  0  0
    3.9575    0.9949    1.4195 H   0  0  0  0  0  0  0  0  0  0  0  0
    6.1759    0.4085    1.0576 H   0  0  0  0  0  0  0  0  0  0  0  0
    6.4463   -0.8547    2.8496 H   0  0  0  0  0  0  0  0  0  0  0  0
    5.4732   -0.4632   -0.9898 H   0  0  0  0  0  0  0  0  0  0  0  0
    5.9354   -2.0614   -0.2643 H   0  0  0  0  0  0  0  0  0  0  0  0
    1.2321   -2.2882   -1.3314 H   0  0  0  0  0  0  0  0  0  0  0  0
    1.8439   -3.9618   -1.6005 H   0  0  0  0  0  0  0  0  0  0  0  0
    1.7410   -3.3145    0.0739 H   0  0  0  0  0  0  0  0  0  0  0  0
   -2.0754    6.5481    2.1094 H   0  0  0  0  0  0  0  0  0  0  0  0
   -3.3245    8.0319    0.5432 H   0  0  0  0  0  0  0  0  0  0  0  0
   -4.0687    7.1761   -1.6687 H   0  0  0  0  0  0  0  0  0  0  0  0
   -3.5679    4.8211   -2.3346 H   0  0  0  0  0  0  0  0  0  0  0  0
   -3.8571   -5.7365   -2.6195 H   0  0  0  0  0  0  0  0  0  0  0  0
   -2.1395   -5.4055   -3.0365 H   0  0  0  0  0  0  0  0  0  0  0  0
  1  2  1  0
  2  3  2  3
  3  4  1  0
  4  5  1  0
  5  6  1  0
  6  7  1  0
  7  8  1  0
  8  9  1  0
  9 10  2  0
  9 11  1  0
 11 12  1  0
 12 13  1  0
 13 14  1  0
 13 15  1  0
 15 16  1  0
 16 17  1  0
 17 18  1  0
 17 19  2  0
  7 20  1  0
 20 21  2  0
 20 22  1  0
 22 23  2  0
 23 24  1  0
 24 25  2  0
 25 26  1  0
 26 27  2  0
 27 28  1  0
 28 29  2  0
 29 30  1  0
  2 31  1  0
 16 11  1  0
 30 22  1  0
 29 24  1  0
  1 32  1  0
  1 33  1  0
  4 34  1  0
  4 35  1  0
  5 36  1  0
  5 37  1  0
  6 38  1  0
  6 39  1  0
  7 40  1  6
  8 41  1  0
 11 42  1  1
 12 43  1  0
 12 44  1  0
 13 45  1  6
 14 46  1  0
 15 47  1  0
 15 48  1  0
 18 49  1  0
 18 50  1  0
 18 51  1  0
 25 52  1  0
 26 53  1  0
 27 54  1  0
 28 55  1  0
 31 56  1  0
 31 57  1  0
M  END
$$$$
