
     RDKit          3D

 15 16  0  0  0  0  0  0  0  0999 V2000
   -0.9069    2.0630    0.5653 N   0  0  0  0  0  0  0  0  0  0  0  0
   -0.8312    0.6473    0.3932 C   0  0  0  0  0  0  0  0  0  0  0  0
    0.3030    0.0220   -0.1174 C   0  0  0  0  0  0  0  0  0  0  0  0
    1.4700    0.5348   -0.5266 N   0  0  0  0  0  0  0  0  0  0  0  0
    2.1811   -0.5533   -0.9167 C   0  0  0  0  0  0  0  0  0  0  0  0
    1.5095   -1.7281   -0.7696 N   0  0  0  0  0  0  0  0  0  0  0  0
    0.3328   -1.3225   -0.2643 C   0  0  0  0  0  0  0  0  0  0  0  0
   -0.7170   -2.1101    0.0711 N   0  0  0  0  0  0  0  0  0  0  0  0
   -1.8386   -1.5107    0.5741 C   0  0  0  0  0  0  0  0  0  0  0  0
   -1.8894   -0.1487    0.7310 N   0  0  0  0  0  0  0  0  0  0  0  0
   -0.1081    2.6851    0.3124 H   0  0  0  0  0  0  0  0  0  0  0  0
   -1.7747    2.4964    0.9515 H   0  0  0  0  0  0  0  0  0  0  0  0
    1.7736    1.5332   -0.5462 H   0  0  0  0  0  0  0  0  0  0  0  0
    3.1880   -0.4937   -1.3082 H   0  0  0  0  0  0  0  0  0  0  0  0
   -2.6918   -2.1147    0.8502 H   0  0  0  0  0  0  0  0  0  0  0  0
  1  2  1  0
  2  3  2  0
  3  4  1  0
  4  5  1  0
  5  6  2  0
  6  7  1  0
  7  8  2  0
  8  9  1  0
  9 10  2  0
 10  2  1  0
  7  3  1  0
  1 11  1  0
  1 12  1  0
  4 13  1  0
  5 14  1  0
  9 15  1  0
M  END
$$$$
