
     RDKit          3D

 34 35  0  0  0  0  0  0  0  0999 V2000
    0.4036    1.4794    0.2809 C   0  0  2  0  0  0  0  0  0  0  0  0
   -0.1210    0.7961    1.5422 C   0  0  0  0  0  0  0  0  0  0  0  0
   -0.7716   -0.4058    1.2047 O   0  0  0  0  0  0  0  0  0  0  0  0
   -1.9604   -0.1514    0.4629 C   0  0  2  0  0  0  0  0  0  0  0  0
   -2.4665   -1.4841   -0.1024 C   0  0  0  0  0  0  0  0  0  0  0  0
   -1.7989    0.7634   -0.6254 O   0  0  0  0  0  0  0  0  0  0  0  0
   -0.4666    1.1469   -0.9502 C   0  0  2  0  0  0  0  0  0  0  0  0
    0.2235    0.1824   -1.9397 C   0  0  2  0  0  0  0  0  0  0  0  0
   -0.7377   -0.4891   -2.7140 O   0  0  0  0  0  0  0  0  0  0  0  0
    1.1272   -0.8184   -1.2011 C   0  0  1  0  0  0  0  0  0  0  0  0
    1.7984   -1.6595   -2.1087 O   0  0  0  0  0  0  0  0  0  0  0  0
    2.1388   -0.0916   -0.2726 C   0  0  2  0  0  0  0  0  0  0  0  0
    2.3250   -0.8579    0.9052 O   0  0  0  0  0  0  0  0  0  0  0  0
    3.5116   -0.4692    1.5632 C   0  0  0  0  0  0  0  0  0  0  0  0
    1.7886    1.2546    0.0501 O   0  0  0  0  0  0  0  0  0  0  0  0
   -3.0428    0.3726    1.3799 C   0  0  0  0  0  0  0  0  0  0  0  0
   -3.9464    1.3272    0.9211 O   0  0  0  0  0  0  0  0  0  0  0  0
   -3.1580   -0.0844    2.5495 O   0  0  0  0  0  0  0  0  0  0  0  0
    0.3002    2.5719    0.4674 H   0  0  0  0  0  0  0  0  0  0  0  0
    0.7126    0.5773    2.2404 H   0  0  0  0  0  0  0  0  0  0  0  0
   -0.8010    1.4796    2.0997 H   0  0  0  0  0  0  0  0  0  0  0  0
   -1.7279   -1.9314   -0.7947 H   0  0  0  0  0  0  0  0  0  0  0  0
   -2.6484   -2.2119    0.7180 H   0  0  0  0  0  0  0  0  0  0  0  0
   -3.4143   -1.3336   -0.6638 H   0  0  0  0  0  0  0  0  0  0  0  0
   -0.5725    2.1011   -1.5142 H   0  0  0  0  0  0  0  0  0  0  0  0
    0.8715    0.7986   -2.6097 H   0  0  0  0  0  0  0  0  0  0  0  0
   -0.2800   -0.8051   -3.5363 H   0  0  0  0  0  0  0  0  0  0  0  0
    0.4894   -1.4768   -0.5824 H   0  0  0  0  0  0  0  0  0  0  0  0
    2.3144   -1.0851   -2.7332 H   0  0  0  0  0  0  0  0  0  0  0  0
    3.0965   -0.0302   -0.8413 H   0  0  0  0  0  0  0  0  0  0  0  0
    4.4061   -0.7063    0.9462 H   0  0  0  0  0  0  0  0  0  0  0  0
    3.5949   -1.0441    2.5081 H   0  0  0  0  0  0  0  0  0  0  0  0
    3.4970    0.6107    1.8294 H   0  0  0  0  0  0  0  0  0  0  0  0
   -4.6853    1.6740    1.5211 H   0  0  0  0  0  0  0  0  0  0  0  0
  1  2  1  0
  2  3  1  0
  3  4  1  0
  4  5  1  6
  4  6  1  0
  6  7  1  0
  7  8  1  0
  8  9  1  0
  8 10  1  0
 10 11  1  0
 10 12  1  0
 12 13  1  0
 13 14  1  0
 12 15  1  0
  4 16  1  0
 16 17  1  0
 16 18  2  0
  7  1  1  0
 15  1  1  0
  1 19  1  1
  2 20  1  0
  2 21  1  0
  5 22  1  0
  5 23  1  0
  5 24  1  0
  7 25  1  6
  8 26  1  6
  9 27  1  0
 10 28  1  1
 11 29  1  0
 12 30  1  6
 14 31  1  0
 14 32  1  0
 14 33  1  0
 17 34  1  0
M  END
$$$$
