
     RDKit          3D

 45 46  0  0  0  0  0  0  0  0999 V2000
    3.5814   -0.5519    0.9475 C   0  0  1  0  0  0  0  0  0  0  0  0
    4.7658   -0.2683    1.8867 C   0  0  0  0  0  0  0  0  0  0  0  0
    5.2301    1.0486    1.7482 O   0  0  0  0  0  0  0  0  0  0  0  0
    2.5517    0.3925    1.1855 O   0  0  0  0  0  0  0  0  0  0  0  0
    1.3638    0.0229    0.5052 C   0  0  1  0  0  0  0  0  0  0  0  0
    0.0745    1.2367    0.9849 S   0  0  0  0  0  0  0  0  0  0  0  0
   -1.4180    0.2313    0.6258 C   0  0  2  0  0  0  0  0  0  0  0  0
   -2.0018    0.7393   -0.5623 O   0  0  0  0  0  0  0  0  0  0  0  0
   -3.0950   -0.0672   -0.9686 C   0  0  2  0  0  0  0  0  0  0  0  0
   -3.5658    0.3819   -2.3590 C   0  0  0  0  0  0  0  0  0  0  0  0
   -2.5605    0.1570   -3.3105 O   0  0  0  0  0  0  0  0  0  0  0  0
   -4.2453    0.0203    0.0654 C   0  0  2  0  0  0  0  0  0  0  0  0
   -4.8344    1.3000    0.0864 O   0  0  0  0  0  0  0  0  0  0  0  0
   -3.7185   -0.3859    1.4592 C   0  0  2  0  0  0  0  0  0  0  0  0
   -4.6965   -0.1924    2.4515 O   0  0  0  0  0  0  0  0  0  0  0  0
   -2.4059    0.3470    1.8068 C   0  0  1  0  0  0  0  0  0  0  0  0
   -1.8514   -0.2395    2.9575 O   0  0  0  0  0  0  0  0  0  0  0  0
    1.5841    0.0489   -1.0260 C   0  0  2  0  0  0  0  0  0  0  0  0
    0.4270   -0.4041   -1.6794 O   0  0  0  0  0  0  0  0  0  0  0  0
    2.7735   -0.8588   -1.4034 C   0  0  1  0  0  0  0  0  0  0  0  0
    3.0981   -0.7002   -2.7613 O   0  0  0  0  0  0  0  0  0  0  0  0
    4.0000   -0.5231   -0.5382 C   0  0  1  0  0  0  0  0  0  0  0  0
    4.4947    0.7499   -0.8750 O   0  0  0  0  0  0  0  0  0  0  0  0
    3.2309   -1.5807    1.2014 H   0  0  0  0  0  0  0  0  0  0  0  0
    5.5985   -0.9670    1.6575 H   0  0  0  0  0  0  0  0  0  0  0  0
    4.4589   -0.4585    2.9409 H   0  0  0  0  0  0  0  0  0  0  0  0
    4.6162    1.6260    2.2727 H   0  0  0  0  0  0  0  0  0  0  0  0
    1.0451   -0.9915    0.8366 H   0  0  0  0  0  0  0  0  0  0  0  0
   -1.1365   -0.8380    0.4980 H   0  0  0  0  0  0  0  0  0  0  0  0
   -2.7783   -1.1329   -1.0666 H   0  0  0  0  0  0  0  0  0  0  0  0
   -4.4605   -0.2071   -2.6539 H   0  0  0  0  0  0  0  0  0  0  0  0
   -3.8558    1.4578   -2.3489 H   0  0  0  0  0  0  0  0  0  0  0  0
   -1.9282    0.9194   -3.2438 H   0  0  0  0  0  0  0  0  0  0  0  0
   -5.0344   -0.7075   -0.2254 H   0  0  0  0  0  0  0  0  0  0  0  0
   -4.1202    1.9668    0.2565 H   0  0  0  0  0  0  0  0  0  0  0  0
   -3.4968   -1.4764    1.4235 H   0  0  0  0  0  0  0  0  0  0  0  0
   -4.8284    0.7847    2.5650 H   0  0  0  0  0  0  0  0  0  0  0  0
   -2.6281    1.4250    1.9915 H   0  0  0  0  0  0  0  0  0  0  0  0
   -1.3301    0.4649    3.4238 H   0  0  0  0  0  0  0  0  0  0  0  0
    1.8121    1.0992   -1.3284 H   0  0  0  0  0  0  0  0  0  0  0  0
    0.4303   -0.0017   -2.5868 H   0  0  0  0  0  0  0  0  0  0  0  0
    2.4955   -1.9224   -1.2047 H   0  0  0  0  0  0  0  0  0  0  0  0
    2.4750   -1.2751   -3.2778 H   0  0  0  0  0  0  0  0  0  0  0  0
    4.7843   -1.2995   -0.7049 H   0  0  0  0  0  0  0  0  0  0  0  0
    5.0990    0.6297   -1.6533 H   0  0  0  0  0  0  0  0  0  0  0  0
  1  2  1  0
  2  3  1  0
  1  4  1  0
  4  5  1  0
  5  6  1  0
  6  7  1  0
  7  8  1  0
  8  9  1  0
  9 10  1  0
 10 11  1  0
  9 12  1  0
 12 13  1  0
 12 14  1  0
 14 15  1  0
 14 16  1  0
 16 17  1  0
  5 18  1  0
 18 19  1  0
 18 20  1  0
 20 21  1  0
 20 22  1  0
 22 23  1  0
 22  1  1  0
 16  7  1  0
  1 24  1  1
  2 25  1  0
  2 26  1  0
  3 27  1  0
  5 28  1  1
  7 29  1  6
  9 30  1  6
 10 31  1  0
 10 32  1  0
 11 33  1  0
 12 34  1  6
 13 35  1  0
 14 36  1  6
 15 37  1  0
 16 38  1  1
 17 39  1  0
 18 40  1  6
 19 41  1  0
 20 42  1  6
 21 43  1  0
 22 44  1  1
 23 45  1  0
M  END
$$$$
