
     RDKit          3D

 50 55  0  0  0  0  0  0  0  0999 V2000
   -3.7128    5.3030    1.4796 O   0  0  0  0  0  0  0  0  0  0  0  0
   -3.8063    4.3884    0.6155 C   0  0  0  0  0  0  0  0  0  0  0  0
   -4.8726    4.3698   -0.2291 N   0  0  0  0  0  0  0  0  0  0  0  0
   -5.0135    3.4227   -1.1593 N   0  0  0  0  0  0  0  0  0  0  0  0
   -4.0982    2.4275   -1.3097 C   0  0  0  0  0  0  0  0  0  0  0  0
   -4.2719    1.5518   -2.2012 O   0  0  0  0  0  0  0  0  0  0  0  0
   -2.9732    2.3872   -0.4693 C   0  0  0  0  0  0  0  0  0  0  0  0
   -1.9996    1.3780   -0.5860 C   0  0  0  0  0  0  0  0  0  0  0  0
   -0.8987    1.3472    0.2831 C   0  0  0  0  0  0  0  0  0  0  0  0
   -0.7446    2.3581    1.2392 C   0  0  0  0  0  0  0  0  0  0  0  0
   -1.7010    3.3681    1.3616 C   0  0  0  0  0  0  0  0  0  0  0  0
   -2.8240    3.3894    0.5144 C   0  0  0  0  0  0  0  0  0  0  0  0
    0.1036    0.3277    0.1538 N   0  0  0  0  0  4  0  0  0  0  0  0
    1.3920    0.6001    0.0295 N   0  0  0  0  0  0  0  0  0  0  0  0
    1.9645   -0.6011   -0.2007 C   0  0  0  0  0  0  0  0  0  0  0  0
    3.4035   -0.8219   -0.4089 C   0  0  0  0  0  0  0  0  0  0  0  0
    4.2823    0.1895   -0.4053 C   0  0  0  0  0  0  0  0  0  0  0  0
    5.7400    0.0171   -0.6222 C   0  0  0  0  0  0  0  0  0  0  0  0
    6.4980    1.1336   -1.0165 C   0  0  0  0  0  0  0  0  0  0  0  0
    7.8761    1.0204   -1.2235 C   0  0  0  0  0  0  0  0  0  0  0  0
    8.5149   -0.2058   -1.0298 C   0  0  0  0  0  0  0  0  0  0  0  0
    7.7778   -1.3197   -0.6227 C   0  0  0  0  0  0  0  0  0  0  0  0
    6.3989   -1.2129   -0.4146 C   0  0  0  0  0  0  0  0  0  0  0  0
    1.0485   -1.5911   -0.2178 N   0  0  0  0  0  0  0  0  0  0  0  0
   -0.1004   -0.9769    0.0098 N   0  0  0  0  0  0  0  0  0  0  0  0
   -1.3370   -1.6849    0.1808 C   0  0  0  0  0  0  0  0  0  0  0  0
   -1.5795   -2.8771   -0.4175 N   0  0  0  0  0  0  0  0  0  0  0  0
   -2.7783   -3.3800   -0.0269 C   0  0  0  0  0  0  0  0  0  0  0  0
   -3.4732   -2.6082    0.8916 C   0  0  0  0  0  0  0  0  0  0  0  0
   -2.5764   -1.2372    1.2519 S   0  0  0  0  0  0  0  0  0  0  0  0
   -4.7132   -2.9938    1.3942 C   0  0  0  0  0  0  0  0  0  0  0  0
   -5.2617   -4.2047    0.9425 C   0  0  0  0  0  0  0  0  0  0  0  0
   -4.5645   -4.9982    0.0094 C   0  0  0  0  0  0  0  0  0  0  0  0
   -3.3125   -4.5873   -0.4805 C   0  0  0  0  0  0  0  0  0  0  0  0
   -5.6014    5.1153   -0.1499 H   0  0  0  0  0  0  0  0  0  0  0  0
   -5.8494    3.4482   -1.7867 H   0  0  0  0  0  0  0  0  0  0  0  0
   -2.0902    0.6138   -1.3486 H   0  0  0  0  0  0  0  0  0  0  0  0
    0.1138    2.3545    1.8993 H   0  0  0  0  0  0  0  0  0  0  0  0
   -1.5599    4.1297    2.1188 H   0  0  0  0  0  0  0  0  0  0  0  0
    3.7258   -1.8371   -0.5921 H   0  0  0  0  0  0  0  0  0  0  0  0
    3.9142    1.2013   -0.2778 H   0  0  0  0  0  0  0  0  0  0  0  0
    6.0210    2.0938   -1.1723 H   0  0  0  0  0  0  0  0  0  0  0  0
    8.4490    1.8848   -1.5335 H   0  0  0  0  0  0  0  0  0  0  0  0
    9.5821   -0.2914   -1.1889 H   0  0  0  0  0  0  0  0  0  0  0  0
    8.2768   -2.2665   -0.4608 H   0  0  0  0  0  0  0  0  0  0  0  0
    5.8655   -2.0876   -0.0704 H   0  0  0  0  0  0  0  0  0  0  0  0
   -5.2395   -2.3789    2.1127 H   0  0  0  0  0  0  0  0  0  0  0  0
   -6.2244   -4.5310    1.3142 H   0  0  0  0  0  0  0  0  0  0  0  0
   -4.9952   -5.9307   -0.3315 H   0  0  0  0  0  0  0  0  0  0  0  0
   -2.7752   -5.1969   -1.1957 H   0  0  0  0  0  0  0  0  0  0  0  0
  1  2  2  0
  2  3  1  0
  3  4  1  0
  4  5  1  0
  5  6  2  0
  5  7  1  0
  7  8  2  0
  8  9  1  0
  9 10  2  0
 10 11  1  0
 11 12  2  0
  9 13  1  0
 13 14  2  0
 14 15  1  0
 15 16  1  0
 16 17  2  0
 17 18  1  0
 18 19  2  0
 19 20  1  0
 20 21  2  0
 21 22  1  0
 22 23  2  0
 15 24  2  0
 24 25  1  0
 25 26  1  0
 26 27  2  0
 27 28  1  0
 28 29  2  0
 29 30  1  0
 29 31  1  0
 31 32  2  0
 32 33  1  0
 33 34  2  0
 12  2  1  0
 25 13  1  0
 30 26  1  0
 12  7  1  0
 23 18  1  0
 34 28  1  0
  3 35  1  0
  4 36  1  0
  8 37  1  0
 10 38  1  0
 11 39  1  0
 16 40  1  0
 17 41  1  0
 19 42  1  0
 20 43  1  0
 21 44  1  0
 22 45  1  0
 23 46  1  0
 31 47  1  0
 32 48  1  0
 33 49  1  0
 34 50  1  0
M  CHG  1  13   1
M  END
$$$$
