
     RDKit          3D

 59 61  0  0  0  0  0  0  0  0999 V2000
   -1.3980   -1.4328    2.4496 C   0  0  0  0  0  0  0  0  0  0  0  0
   -1.4261   -0.2483    1.6644 O   0  0  0  0  0  0  0  0  0  0  0  0
   -2.3518    0.7778    1.8785 C   0  0  0  0  0  0  0  0  0  0  0  0
   -3.2033    0.6869    2.8049 O   0  0  0  0  0  0  0  0  0  0  0  0
   -2.3233    2.0129    1.0099 C   0  0  2  0  0  0  0  0  0  0  0  0
   -2.2369    1.6384   -0.4871 C   0  0  0  0  0  0  0  0  0  0  0  0
   -3.4466    0.8581   -0.9394 C   0  0  0  0  0  0  0  0  0  0  0  0
   -3.3945   -0.5427   -1.0360 C   0  0  0  0  0  0  0  0  0  0  0  0
   -4.5297   -1.2778   -1.4243 C   0  0  0  0  0  0  0  0  0  0  0  0
   -5.7192   -0.5901   -1.7195 C   0  0  0  0  0  0  0  0  0  0  0  0
   -5.7753    0.8021   -1.6193 C   0  0  0  0  0  0  0  0  0  0  0  0
   -4.6468    1.5243   -1.2275 C   0  0  0  0  0  0  0  0  0  0  0  0
   -4.4773   -2.7579   -1.5276 C   0  0  0  0  0  0  0  0  0  0  0  0
   -5.1986   -3.4329   -2.5615 N   0  0  0  0  0  0  0  0  0  0  0  0
   -3.7895   -3.4615   -0.6824 N   0  0  0  0  0  0  0  0  0  0  0  0
   -1.1758    2.9769    1.4153 C   0  0  1  0  0  0  0  0  0  0  0  0
   -1.3703    3.5311    2.8325 C   0  0  0  0  0  0  0  0  0  0  0  0
    0.1329    2.3180    1.3171 N   0  0  0  0  0  0  0  0  0  0  0  0
    0.9964    2.4689    0.1773 C   0  0  0  0  0  0  0  0  0  0  0  0
    0.8040    3.4178   -0.6314 O   0  0  0  0  0  0  0  0  0  0  0  0
    2.1211    1.5323   -0.0588 C   0  0  0  0  0  0  0  0  0  0  0  0
    2.0936    0.2219    0.4493 C   0  0  0  0  0  0  0  0  0  0  0  0
    3.1548   -0.6553    0.2094 C   0  0  0  0  0  0  0  0  0  0  0  0
    4.2645   -0.2455   -0.5495 C   0  0  0  0  0  0  0  0  0  0  0  0
    4.2861    1.0609   -1.0675 C   0  0  0  0  0  0  0  0  0  0  0  0
    3.2247    1.9380   -0.8280 C   0  0  0  0  0  0  0  0  0  0  0  0
    5.3918   -1.1790   -0.8042 C   0  0  0  0  0  0  0  0  0  0  0  0
    5.8538   -2.0374    0.2072 C   0  0  0  0  0  0  0  0  0  0  0  0
    6.9153   -2.9074   -0.0528 C   0  0  0  0  0  0  0  0  0  0  0  0
    7.5024   -2.9281   -1.2805 N   0  0  0  0  0  4  0  0  0  0  0  0
    8.5460   -3.7929   -1.5161 O   0  0  0  0  0  1  0  0  0  0  0  0
    7.0751   -2.1082   -2.2793 C   0  0  0  0  0  0  0  0  0  0  0  0
    6.0174   -1.2222   -2.0611 C   0  0  0  0  0  0  0  0  0  0  0  0
   -1.2001   -1.1787    3.5124 H   0  0  0  0  0  0  0  0  0  0  0  0
   -0.5878   -2.0945    2.0804 H   0  0  0  0  0  0  0  0  0  0  0  0
   -2.3673   -1.9679    2.3648 H   0  0  0  0  0  0  0  0  0  0  0  0
   -3.2818    2.5621    1.1544 H   0  0  0  0  0  0  0  0  0  0  0  0
   -2.1648    2.5654   -1.0974 H   0  0  0  0  0  0  0  0  0  0  0  0
   -1.3115    1.0550   -0.6868 H   0  0  0  0  0  0  0  0  0  0  0  0
   -2.4637   -1.0545   -0.8248 H   0  0  0  0  0  0  0  0  0  0  0  0
   -6.6130   -1.1294   -2.0063 H   0  0  0  0  0  0  0  0  0  0  0  0
   -6.6987    1.3222   -1.8392 H   0  0  0  0  0  0  0  0  0  0  0  0
   -4.7077    2.6026   -1.1461 H   0  0  0  0  0  0  0  0  0  0  0  0
   -5.1967   -4.4762   -2.6106 H   0  0  0  0  0  0  0  0  0  0  0  0
   -5.6923   -2.9018   -3.3124 H   0  0  0  0  0  0  0  0  0  0  0  0
   -3.2567   -3.0369    0.1089 H   0  0  0  0  0  0  0  0  0  0  0  0
   -1.2083    3.8567    0.7350 H   0  0  0  0  0  0  0  0  0  0  0  0
   -1.3247    2.7181    3.5878 H   0  0  0  0  0  0  0  0  0  0  0  0
   -0.5699    4.2670    3.0598 H   0  0  0  0  0  0  0  0  0  0  0  0
   -2.3513    4.0458    2.9140 H   0  0  0  0  0  0  0  0  0  0  0  0
    0.4181    1.6734    2.0881 H   0  0  0  0  0  0  0  0  0  0  0  0
    1.2433   -0.1416    1.0091 H   0  0  0  0  0  0  0  0  0  0  0  0
    3.0951   -1.6642    0.5982 H   0  0  0  0  0  0  0  0  0  0  0  0
    5.1328    1.4119   -1.6439 H   0  0  0  0  0  0  0  0  0  0  0  0
    3.2742    2.9407   -1.2344 H   0  0  0  0  0  0  0  0  0  0  0  0
    5.4111   -2.0243    1.1952 H   0  0  0  0  0  0  0  0  0  0  0  0
    7.2717   -3.5648    0.7305 H   0  0  0  0  0  0  0  0  0  0  0  0
    7.5523   -2.1418   -3.2509 H   0  0  0  0  0  0  0  0  0  0  0  0
    5.6812   -0.5905   -2.8736 H   0  0  0  0  0  0  0  0  0  0  0  0
  1  2  1  0
  2  3  1  0
  3  4  2  0
  3  5  1  0
  5  6  1  0
  6  7  1  0
  7  8  2  0
  8  9  1  0
  9 10  2  0
 10 11  1  0
 11 12  2  0
  9 13  1  0
 13 14  1  0
 13 15  2  3
  5 16  1  0
 16 17  1  0
 16 18  1  0
 18 19  1  0
 19 20  2  0
 19 21  1  0
 21 22  2  0
 22 23  1  0
 23 24  2  0
 24 25  1  0
 25 26  2  0
 24 27  1  0
 27 28  2  0
 28 29  1  0
 29 30  2  0
 30 31  1  0
 30 32  1  0
 32 33  2  0
 12  7  1  0
 26 21  1  0
 33 27  1  0
  1 34  1  0
  1 35  1  0
  1 36  1  0
  5 37  1  6
  6 38  1  0
  6 39  1  0
  8 40  1  0
 10 41  1  0
 11 42  1  0
 12 43  1  0
 14 44  1  0
 14 45  1  0
 15 46  1  0
 16 47  1  6
 17 48  1  0
 17 49  1  0
 17 50  1  0
 18 51  1  0
 22 52  1  0
 23 53  1  0
 25 54  1  0
 26 55  1  0
 28 56  1  0
 29 57  1  0
 32 58  1  0
 33 59  1  0
M  CHG  2  30   1  31  -1
M  END
$$$$
