
     RDKit          3D

 47 50  0  0  0  0  0  0  0  0999 V2000
   -2.0701   -1.6549   -3.4977 O   0  0  0  0  0  0  0  0  0  0  0  0
   -2.3097   -0.9421   -2.3089 C   0  0  0  0  0  0  0  0  0  0  0  0
   -3.6434   -1.4317   -1.7010 C   0  0  0  0  0  0  0  0  0  0  0  0
   -3.9382   -0.6627   -0.3977 C   0  0  0  0  0  0  0  0  0  0  0  0
   -4.0428    0.8467   -0.6960 C   0  0  0  0  0  0  0  0  0  0  0  0
   -2.7120    1.3452   -1.2944 C   0  0  0  0  0  0  0  0  0  0  0  0
   -2.4181    0.5783   -2.6026 C   0  0  0  0  0  0  0  0  0  0  0  0
   -1.5658    1.1073   -0.2848 C   0  0  0  0  0  0  0  0  0  0  0  0
   -1.4386   -0.4138    0.0349 C   0  0  0  0  0  0  0  0  0  0  0  0
   -2.7966   -0.9078    0.6084 C   0  0  0  0  0  0  0  0  0  0  0  0
   -1.1639   -1.1882   -1.2903 C   0  0  0  0  0  0  0  0  0  0  0  0
   -0.4038   -0.6792    1.0662 N   0  0  0  0  0  0  0  0  0  0  0  0
    0.9907   -0.4519    0.6490 C   0  0  0  0  0  0  0  0  0  0  0  0
    1.9332   -0.6918    1.8005 C   0  0  0  0  0  0  0  0  0  0  0  0
    1.6212   -1.5415    2.6796 O   0  0  0  0  0  0  0  0  0  0  0  0
    3.2075   -0.0218    1.8874 N   0  0  0  0  0  0  0  0  0  0  0  0
    4.0244   -0.0750    3.0885 C   0  0  0  0  0  0  0  0  0  0  0  0
    5.0938    0.9932    2.9101 C   0  0  0  0  0  0  0  0  0  0  0  0
    5.1325    1.2985    1.4159 C   0  0  0  0  0  0  0  0  0  0  0  0
    3.7765    0.8494    0.8651 C   0  0  1  0  0  0  0  0  0  0  0  0
    3.9396    0.1301   -0.4100 C   0  0  0  0  0  0  0  0  0  0  0  0
    4.0666   -0.4351   -1.4119 N   0  0  0  0  0  0  0  0  0  0  0  0
   -1.2177   -1.3227   -3.8840 H   0  0  0  0  0  0  0  0  0  0  0  0
   -4.4735   -1.2758   -2.4253 H   0  0  0  0  0  0  0  0  0  0  0  0
   -3.5893   -2.5230   -1.4906 H   0  0  0  0  0  0  0  0  0  0  0  0
   -4.8973   -1.0216    0.0350 H   0  0  0  0  0  0  0  0  0  0  0  0
   -4.8753    1.0365   -1.4087 H   0  0  0  0  0  0  0  0  0  0  0  0
   -4.2724    1.4046    0.2384 H   0  0  0  0  0  0  0  0  0  0  0  0
   -2.7912    2.4323   -1.5138 H   0  0  0  0  0  0  0  0  0  0  0  0
   -1.4707    0.9533   -3.0492 H   0  0  0  0  0  0  0  0  0  0  0  0
   -3.2286    0.7671   -3.3409 H   0  0  0  0  0  0  0  0  0  0  0  0
   -1.7640    1.6821    0.6466 H   0  0  0  0  0  0  0  0  0  0  0  0
   -0.6268    1.5024   -0.7254 H   0  0  0  0  0  0  0  0  0  0  0  0
   -3.0263   -0.3786    1.5600 H   0  0  0  0  0  0  0  0  0  0  0  0
   -2.7363   -1.9933    0.8462 H   0  0  0  0  0  0  0  0  0  0  0  0
   -0.2155   -0.8417   -1.7534 H   0  0  0  0  0  0  0  0  0  0  0  0
   -1.0638   -2.2768   -1.0832 H   0  0  0  0  0  0  0  0  0  0  0  0
   -0.5992   -0.0660    1.8940 H   0  0  0  0  0  0  0  0  0  0  0  0
    1.2759   -1.1694   -0.1463 H   0  0  0  0  0  0  0  0  0  0  0  0
    1.1182    0.5838    0.2800 H   0  0  0  0  0  0  0  0  0  0  0  0
    3.4096    0.1414    3.9895 H   0  0  0  0  0  0  0  0  0  0  0  0
    4.4867   -1.0818    3.1790 H   0  0  0  0  0  0  0  0  0  0  0  0
    6.0820    0.6425    3.2796 H   0  0  0  0  0  0  0  0  0  0  0  0
    4.8006    1.9103    3.4672 H   0  0  0  0  0  0  0  0  0  0  0  0
    5.9720    0.7271    0.9579 H   0  0  0  0  0  0  0  0  0  0  0  0
    5.3000    2.3827    1.2348 H   0  0  0  0  0  0  0  0  0  0  0  0
    3.1196    1.7335    0.7175 H   0  0  0  0  0  0  0  0  0  0  0  0
  1  2  1  0
  2  3  1  0
  3  4  1  0
  4  5  1  0
  5  6  1  0
  6  7  1  0
  6  8  1  0
  8  9  1  0
  9 10  1  0
  9 11  1  0
  9 12  1  0
 12 13  1  0
 13 14  1  0
 14 15  2  0
 14 16  1  0
 16 17  1  0
 17 18  1  0
 18 19  1  0
 19 20  1  0
 20 21  1  0
 21 22  3  0
  7  2  1  0
 20 16  1  0
 11  2  1  0
 10  4  1  0
  1 23  1  0
  3 24  1  0
  3 25  1  0
  4 26  1  0
  5 27  1  0
  5 28  1  0
  6 29  1  0
  7 30  1  0
  7 31  1  0
  8 32  1  0
  8 33  1  0
 10 34  1  0
 10 35  1  0
 11 36  1  0
 11 37  1  0
 12 38  1  0
 13 39  1  0
 13 40  1  0
 17 41  1  0
 17 42  1  0
 18 43  1  0
 18 44  1  0
 19 45  1  0
 19 46  1  0
 20 47  1  6
M  END
$$$$
