
     RDKit          3D

 30 31  0  0  0  0  0  0  0  0999 V2000
    4.5275    0.6711   -0.6611 C   0  0  0  0  0  0  0  0  0  0  0  0
    3.3141    0.1245    0.0405 C   0  0  0  0  0  0  0  0  0  0  0  0
    2.0575    0.0955   -0.6010 C   0  0  0  0  0  0  0  0  0  0  0  0
    1.8817    0.7271   -2.2413 Cl  0  0  0  0  0  0  0  0  0  0  0  0
    0.9286   -0.4074    0.0784 C   0  0  0  0  0  0  0  0  0  0  0  0
   -0.3492   -0.4346   -0.5796 N   0  0  0  0  0  0  0  0  0  0  0  0
   -1.5235    0.1997   -0.0401 C   0  0  0  0  0  0  0  0  0  0  0  0
   -1.3899    1.3691    0.7324 C   0  0  0  0  0  0  0  0  0  0  0  0
   -2.5166    2.0504    1.1930 C   0  0  0  0  0  0  0  0  0  0  0  0
   -3.7912    1.5814    0.8827 C   0  0  0  0  0  0  0  0  0  0  0  0
   -3.9445    0.4216    0.1216 C   0  0  0  0  0  0  0  0  0  0  0  0
   -2.8207   -0.2908   -0.3388 C   0  0  0  0  0  0  0  0  0  0  0  0
   -3.0323   -1.5588   -1.0778 C   0  0  0  0  0  0  0  0  0  0  0  0
   -2.0701   -2.5647   -1.0534 O   0  0  0  0  0  0  0  0  0  0  0  0
   -4.1085   -1.7526   -1.7057 O   0  0  0  0  0  0  0  0  0  0  0  0
    1.0701   -0.9019    1.3913 C   0  0  0  0  0  0  0  0  0  0  0  0
   -0.2804   -1.6286    2.2548 Cl  0  0  0  0  0  0  0  0  0  0  0  0
    2.3168   -0.8678    2.0194 C   0  0  0  0  0  0  0  0  0  0  0  0
    3.4294   -0.3560    1.3533 C   0  0  0  0  0  0  0  0  0  0  0  0
    4.3646    1.7401   -0.9129 H   0  0  0  0  0  0  0  0  0  0  0  0
    5.4365    0.5986   -0.0266 H   0  0  0  0  0  0  0  0  0  0  0  0
    4.7117    0.0981   -1.5941 H   0  0  0  0  0  0  0  0  0  0  0  0
   -0.3867   -0.7885   -1.5618 H   0  0  0  0  0  0  0  0  0  0  0  0
   -0.4101    1.7697    0.9590 H   0  0  0  0  0  0  0  0  0  0  0  0
   -2.4008    2.9510    1.7821 H   0  0  0  0  0  0  0  0  0  0  0  0
   -4.6639    2.1143    1.2377 H   0  0  0  0  0  0  0  0  0  0  0  0
   -4.9465    0.0676   -0.0880 H   0  0  0  0  0  0  0  0  0  0  0  0
   -2.2166   -3.4375   -1.5462 H   0  0  0  0  0  0  0  0  0  0  0  0
    2.4280   -1.2491    3.0267 H   0  0  0  0  0  0  0  0  0  0  0  0
    4.3847   -0.3416    1.8635 H   0  0  0  0  0  0  0  0  0  0  0  0
  1  2  1  0
  2  3  2  0
  3  4  1  0
  3  5  1  0
  5  6  1  0
  6  7  1  0
  7  8  2  0
  8  9  1  0
  9 10  2  0
 10 11  1  0
 11 12  2  0
 12 13  1  0
 13 14  1  0
 13 15  2  0
  5 16  2  0
 16 17  1  0
 16 18  1  0
 18 19  2  0
 19  2  1  0
 12  7  1  0
  1 20  1  0
  1 21  1  0
  1 22  1  0
  6 23  1  0
  8 24  1  0
  9 25  1  0
 10 26  1  0
 11 27  1  0
 14 28  1  0
 18 29  1  0
 19 30  1  0
M  END
$$$$
