
     RDKit          3D

 52 54  0  0  0  0  0  0  0  0999 V2000
    1.4776   -1.2450   -1.5527 C   0  0  2  0  0  0  0  0  0  0  0  0
    0.2903   -1.8415   -2.3386 C   0  0  0  0  0  0  0  0  0  0  0  0
    0.4021   -3.2345   -2.4214 O   0  0  0  0  0  0  0  0  0  0  0  0
    1.2350    0.1846   -1.3062 N   0  0  0  0  0  0  0  0  0  0  0  0
    0.3364    0.6455   -0.2880 C   0  0  0  0  0  0  0  0  0  0  0  0
   -0.3991   -0.2527    0.4438 N   0  0  0  0  0  0  0  0  0  0  0  0
   -1.2457    0.1418    1.4407 C   0  0  0  0  0  0  0  0  0  0  0  0
   -2.0293   -0.8137    2.1748 N   0  0  0  0  0  0  0  0  0  0  0  0
   -1.9058   -2.2370    2.0072 C   0  0  0  0  0  0  0  0  0  0  0  0
   -3.0560   -3.0394    2.0571 C   0  0  0  0  0  0  0  0  0  0  0  0
   -2.9610   -4.4235    1.8826 C   0  0  0  0  0  0  0  0  0  0  0  0
   -1.7155   -5.0191    1.6673 C   0  0  0  0  0  0  0  0  0  0  0  0
   -0.5596   -4.2328    1.6420 C   0  0  0  0  0  0  0  0  0  0  0  0
    1.0061   -4.9796    1.3805 Cl  0  0  0  0  0  0  0  0  0  0  0  0
   -0.6509   -2.8491    1.8266 C   0  0  0  0  0  0  0  0  0  0  0  0
   -1.3501    1.5077    1.6794 C   0  0  0  0  0  0  0  0  0  0  0  0
   -2.1068    2.1629    2.5796 N   0  0  0  0  0  0  0  0  0  0  0  0
   -1.7919    3.4667    2.3448 C   0  0  0  0  0  0  0  0  0  0  0  0
   -0.8824    3.6319    1.3469 N   0  0  0  0  0  0  0  0  0  0  0  0
   -0.3200    4.8835    0.8278 C   0  0  0  0  0  0  0  0  0  0  0  0
   -1.4282    5.7616    0.2406 C   0  0  0  0  0  0  0  0  0  0  0  0
    0.4439    5.6216    1.9303 C   0  0  0  0  0  0  0  0  0  0  0  0
   -0.6222    2.3813    0.9453 C   0  0  0  0  0  0  0  0  0  0  0  0
    0.2244    1.9856   -0.0366 N   0  0  0  0  0  0  0  0  0  0  0  0
    2.8712   -1.4472   -2.2289 C   0  0  0  0  0  0  0  0  0  0  0  0
    3.4099   -2.8759   -2.0532 C   0  0  0  0  0  0  0  0  0  0  0  0
    2.9044   -1.0451   -3.7129 C   0  0  0  0  0  0  0  0  0  0  0  0
    1.5176   -1.7547   -0.5635 H   0  0  0  0  0  0  0  0  0  0  0  0
   -0.6593   -1.5945   -1.8156 H   0  0  0  0  0  0  0  0  0  0  0  0
    0.2301   -1.3967   -3.3556 H   0  0  0  0  0  0  0  0  0  0  0  0
   -0.3784   -3.5440   -2.9506 H   0  0  0  0  0  0  0  0  0  0  0  0
    1.7912    0.9047   -1.8203 H   0  0  0  0  0  0  0  0  0  0  0  0
   -2.8209   -0.4573    2.7572 H   0  0  0  0  0  0  0  0  0  0  0  0
   -4.0280   -2.5888    2.2139 H   0  0  0  0  0  0  0  0  0  0  0  0
   -3.8542   -5.0341    1.9100 H   0  0  0  0  0  0  0  0  0  0  0  0
   -1.6493   -6.0905    1.5271 H   0  0  0  0  0  0  0  0  0  0  0  0
    0.2571   -2.2614    1.8451 H   0  0  0  0  0  0  0  0  0  0  0  0
   -2.2270    4.2868    2.9010 H   0  0  0  0  0  0  0  0  0  0  0  0
    0.4003    4.6552    0.0110 H   0  0  0  0  0  0  0  0  0  0  0  0
   -0.9912    6.6778   -0.2107 H   0  0  0  0  0  0  0  0  0  0  0  0
   -1.9693    5.2035   -0.5527 H   0  0  0  0  0  0  0  0  0  0  0  0
   -2.1537    6.0600    1.0271 H   0  0  0  0  0  0  0  0  0  0  0  0
    0.9245    6.5340    1.5173 H   0  0  0  0  0  0  0  0  0  0  0  0
   -0.2399    5.9179    2.7540 H   0  0  0  0  0  0  0  0  0  0  0  0
    1.2376    4.9632    2.3430 H   0  0  0  0  0  0  0  0  0  0  0  0
    3.5888   -0.7835   -1.6957 H   0  0  0  0  0  0  0  0  0  0  0  0
    4.4744   -2.9171   -2.3691 H   0  0  0  0  0  0  0  0  0  0  0  0
    3.3596   -3.1852   -0.9875 H   0  0  0  0  0  0  0  0  0  0  0  0
    2.8436   -3.6029   -2.6701 H   0  0  0  0  0  0  0  0  0  0  0  0
    2.4759   -0.0324   -3.8603 H   0  0  0  0  0  0  0  0  0  0  0  0
    2.3387   -1.7704   -4.3353 H   0  0  0  0  0  0  0  0  0  0  0  0
    3.9549   -1.0279   -4.0742 H   0  0  0  0  0  0  0  0  0  0  0  0
  1  2  1  0
  2  3  1  0
  1  4  1  0
  4  5  1  0
  5  6  2  0
  6  7  1  0
  7  8  1  0
  8  9  1  0
  9 10  2  0
 10 11  1  0
 11 12  2  0
 12 13  1  0
 13 14  1  0
 13 15  2  0
  7 16  2  0
 16 17  1  0
 17 18  2  0
 18 19  1  0
 19 20  1  0
 20 21  1  0
 20 22  1  0
 19 23  1  0
 23 24  2  0
  1 25  1  0
 25 26  1  0
 25 27  1  0
 24  5  1  0
 15  9  1  0
 23 16  1  0
  1 28  1  1
  2 29  1  0
  2 30  1  0
  3 31  1  0
  4 32  1  0
  8 33  1  0
 10 34  1  0
 11 35  1  0
 12 36  1  0
 15 37  1  0
 18 38  1  0
 20 39  1  0
 21 40  1  0
 21 41  1  0
 21 42  1  0
 22 43  1  0
 22 44  1  0
 22 45  1  0
 25 46  1  0
 26 47  1  0
 26 48  1  0
 26 49  1  0
 27 50  1  0
 27 51  1  0
 27 52  1  0
M  END
$$$$
