
     RDKit          3D

 16 16  0  0  0  0  0  0  0  0999 V2000
   -2.7531   -0.0922    0.6126 O   0  0  0  0  0  0  0  0  0  0  0  0
   -1.9558    0.7142   -0.2105 C   0  0  0  0  0  0  0  0  0  0  0  0
   -0.5200    0.2569   -0.1538 C   0  0  0  0  0  0  0  0  0  0  0  0
   -0.0990   -0.9219   -0.8072 C   0  0  0  0  0  0  0  0  0  0  0  0
   -1.2169   -1.9109   -1.7410 Cl  0  0  0  0  0  0  0  0  0  0  0  0
    1.2369   -1.3320   -0.7157 C   0  0  0  0  0  0  0  0  0  0  0  0
    2.1558   -0.5856    0.0276 C   0  0  0  0  0  0  0  0  0  0  0  0
    3.8267   -1.1082    0.1380 Cl  0  0  0  0  0  0  0  0  0  0  0  0
    1.7410    0.5738    0.6874 C   0  0  0  0  0  0  0  0  0  0  0  0
    0.4103    0.9912    0.6019 C   0  0  0  0  0  0  0  0  0  0  0  0
   -2.5588    0.1790    1.5479 H   0  0  0  0  0  0  0  0  0  0  0  0
   -2.0515    1.7826    0.0905 H   0  0  0  0  0  0  0  0  0  0  0  0
   -2.3302    0.6473   -1.2535 H   0  0  0  0  0  0  0  0  0  0  0  0
    1.5604   -2.2341   -1.2200 H   0  0  0  0  0  0  0  0  0  0  0  0
    2.4481    1.1513    1.2693 H   0  0  0  0  0  0  0  0  0  0  0  0
    0.1062    1.8886    1.1263 H   0  0  0  0  0  0  0  0  0  0  0  0
  1  2  1  0
  2  3  1  0
  3  4  2  0
  4  5  1  0
  4  6  1  0
  6  7  2  0
  7  8  1  0
  7  9  1  0
  9 10  2  0
 10  3  1  0
  1 11  1  0
  2 12  1  0
  2 13  1  0
  6 14  1  0
  9 15  1  0
 10 16  1  0
M  END
$$$$
