
     RDKit          3D

 45 46  0  0  0  0  0  0  0  0999 V2000
   -6.6048   -1.7298    1.4756 N   0  0  0  0  0  0  0  0  0  0  0  0
   -5.5115   -0.8921    1.0995 C   0  0  0  0  0  0  0  0  0  0  0  0
   -5.4948    0.4095    1.4813 N   0  0  0  0  0  0  0  0  0  0  0  0
   -4.4718    1.2368    1.1417 C   0  0  0  0  0  0  0  0  0  0  0  0
   -4.5017    2.4342    1.5351 O   0  0  0  0  0  0  0  0  0  0  0  0
   -3.4245    0.7691    0.3855 N   0  0  0  0  0  0  0  0  0  0  0  0
   -3.4085   -0.5464    0.0048 C   0  0  0  0  0  0  0  0  0  0  0  0
   -4.4540   -1.4001    0.3487 C   0  0  0  0  0  0  0  0  0  0  0  0
   -2.2888    1.6461    0.0325 C   0  0  2  0  0  0  0  0  0  0  0  0
   -1.8489    1.3842   -1.2841 O   0  0  0  0  0  0  0  0  0  0  0  0
   -0.4360    1.4443   -1.2966 C   0  0  2  0  0  0  0  0  0  0  0  0
    0.1140    0.1144   -1.8251 C   0  0  0  0  0  0  0  0  0  0  0  0
    1.5099    0.2145   -1.9748 O   0  0  0  0  0  0  0  0  0  0  0  0
    2.0998   -1.2516   -2.6220 P   0  0  0  0  0  5  0  0  0  0  0  0
    1.3963   -2.5902   -1.8535 O   0  0  0  0  0  0  0  0  0  0  0  0
    1.7761   -1.3012   -4.0987 O   0  0  0  0  0  0  0  0  0  0  0  0
    3.7906   -1.3342   -2.4443 O   0  0  0  0  0  0  0  0  0  0  0  0
    4.1645   -0.9172   -0.8358 P   0  0  0  0  0  5  0  0  0  0  0  0
    3.1852   -1.7813    0.2456 O   0  0  0  0  0  0  0  0  0  0  0  0
    3.9481    0.5681   -0.6434 O   0  0  0  0  0  0  0  0  0  0  0  0
    5.8064   -1.2872   -0.5751 O   0  0  0  0  0  0  0  0  0  0  0  0
    6.1354   -1.0768    1.0830 P   0  0  0  0  0  5  0  0  0  0  0  0
    7.8098   -1.1489    1.3117 O   0  0  0  0  0  0  0  0  0  0  0  0
    5.5758    0.4241    1.6341 O   0  0  0  0  0  0  0  0  0  0  0  0
    5.4899   -2.1853    1.8842 O   0  0  0  0  0  0  0  0  0  0  0  0
    0.0730    1.7523    0.1220 C   0  0  1  0  0  0  0  0  0  0  0  0
    0.4744    3.0988    0.2390 O   0  0  0  0  0  0  0  0  0  0  0  0
   -1.1213    1.4359    0.9891 C   0  0  1  0  0  0  0  0  0  0  0  0
   -1.1986    2.2885    2.1022 O   0  0  0  0  0  0  0  0  0  0  0  0
   -6.6334   -2.7349    1.1929 H   0  0  0  0  0  0  0  0  0  0  0  0
   -7.3929   -1.3433    2.0410 H   0  0  0  0  0  0  0  0  0  0  0  0
   -2.5813   -0.9478   -0.5670 H   0  0  0  0  0  0  0  0  0  0  0  0
   -4.4367   -2.4375    0.0392 H   0  0  0  0  0  0  0  0  0  0  0  0
   -2.5995    2.7154    0.0586 H   0  0  0  0  0  0  0  0  0  0  0  0
   -0.1239    2.2478   -2.0006 H   0  0  0  0  0  0  0  0  0  0  0  0
   -0.1494   -0.6881   -1.0999 H   0  0  0  0  0  0  0  0  0  0  0  0
   -0.3706   -0.0973   -2.8059 H   0  0  0  0  0  0  0  0  0  0  0  0
    0.5552   -2.7631   -2.3473 H   0  0  0  0  0  0  0  0  0  0  0  0
    3.4023   -2.7328    0.0763 H   0  0  0  0  0  0  0  0  0  0  0  0
    8.1695   -0.4030    0.7686 H   0  0  0  0  0  0  0  0  0  0  0  0
    5.8688    0.4719    2.5790 H   0  0  0  0  0  0  0  0  0  0  0  0
    0.9335    1.1099    0.4141 H   0  0  0  0  0  0  0  0  0  0  0  0
   -0.2866    3.6759   -0.0342 H   0  0  0  0  0  0  0  0  0  0  0  0
   -1.0595    0.3701    1.3144 H   0  0  0  0  0  0  0  0  0  0  0  0
   -1.8795    1.8965    2.7086 H   0  0  0  0  0  0  0  0  0  0  0  0
  1  2  1  0
  2  3  2  0
  3  4  1  0
  4  5  2  0
  4  6  1  0
  6  7  1  0
  7  8  2  0
  6  9  1  0
  9 10  1  0
 10 11  1  0
 11 12  1  0
 12 13  1  0
 13 14  1  0
 14 15  1  0
 14 16  2  0
 14 17  1  0
 17 18  1  0
 18 19  1  0
 18 20  2  0
 18 21  1  0
 21 22  1  0
 22 23  1  0
 22 24  1  0
 22 25  2  0
 11 26  1  0
 26 27  1  0
 26 28  1  0
 28 29  1  0
  8  2  1  0
 28  9  1  0
  1 30  1  0
  1 31  1  0
  7 32  1  0
  8 33  1  0
  9 34  1  6
 11 35  1  6
 12 36  1  0
 12 37  1  0
 15 38  1  0
 19 39  1  0
 23 40  1  0
 24 41  1  0
 26 42  1  1
 27 43  1  0
 28 44  1  1
 29 45  1  0
M  END
$$$$
