
     RDKit          3D

 30 31  0  0  0  0  0  0  0  0999 V2000
    1.0779    0.4345    1.4379 N   0  0  0  0  0  0  0  0  0  0  0  0
    2.4395    0.7303    1.7122 C   0  0  0  0  0  0  0  0  0  0  0  0
    2.8499    1.1679    2.8190 O   0  0  0  0  0  0  0  0  0  0  0  0
    3.2743    0.5070    0.5995 N   0  0  0  0  0  0  0  0  0  0  0  0
    4.5352    0.9746    0.4420 O   0  0  0  0  0  0  0  0  0  0  0  0
    2.3949    0.1102   -0.4390 C   0  0  0  0  0  0  0  0  0  0  0  0
    2.7728   -0.0632   -1.6284 O   0  0  0  0  0  0  0  0  0  0  0  0
    0.9640   -0.0007    0.0368 C   0  0  2  0  0  0  0  0  0  0  0  0
    0.1769    0.9356   -0.6914 O   0  0  0  0  0  0  0  0  0  0  0  0
   -1.1908    0.5898   -0.8912 C   0  0  2  0  0  0  0  0  0  0  0  0
   -1.9911    1.8967   -1.0198 C   0  0  0  0  0  0  0  0  0  0  0  0
   -1.4538    2.7047   -2.0323 O   0  0  0  0  0  0  0  0  0  0  0  0
   -1.7911   -0.3026    0.2207 C   0  0  1  0  0  0  0  0  0  0  0  0
   -3.1376   -0.5804   -0.0736 O   0  0  0  0  0  0  0  0  0  0  0  0
   -1.0118   -1.6309    0.3448 C   0  0  2  0  0  0  0  0  0  0  0  0
   -1.1135   -2.1109    1.6623 O   0  0  0  0  0  0  0  0  0  0  0  0
    0.4823   -1.4791   -0.0303 C   0  0  1  0  0  0  0  0  0  0  0  0
    0.7445   -2.0589   -1.2874 O   0  0  0  0  0  0  0  0  0  0  0  0
    0.3019    0.5267    2.1288 H   0  0  0  0  0  0  0  0  0  0  0  0
    5.1184    0.2017    0.6529 H   0  0  0  0  0  0  0  0  0  0  0  0
   -1.2875    0.0582   -1.8623 H   0  0  0  0  0  0  0  0  0  0  0  0
   -3.0635    1.6868   -1.2356 H   0  0  0  0  0  0  0  0  0  0  0  0
   -1.9414    2.4563   -0.0611 H   0  0  0  0  0  0  0  0  0  0  0  0
   -1.7333    2.3018   -2.8957 H   0  0  0  0  0  0  0  0  0  0  0  0
   -1.7348    0.2615    1.1801 H   0  0  0  0  0  0  0  0  0  0  0  0
   -3.5729   -0.8415    0.7796 H   0  0  0  0  0  0  0  0  0  0  0  0
   -1.4632   -2.3810   -0.3490 H   0  0  0  0  0  0  0  0  0  0  0  0
   -2.0160   -2.5138    1.7565 H   0  0  0  0  0  0  0  0  0  0  0  0
    1.0866   -2.0591    0.7037 H   0  0  0  0  0  0  0  0  0  0  0  0
    0.2833   -1.5220   -1.9796 H   0  0  0  0  0  0  0  0  0  0  0  0
  1  2  1  0
  2  3  2  0
  2  4  1  0
  4  5  1  0
  4  6  1  0
  6  7  2  0
  6  8  1  0
  8  9  1  6
  9 10  1  0
 10 11  1  0
 11 12  1  0
 10 13  1  0
 13 14  1  0
 13 15  1  0
 15 16  1  0
 15 17  1  0
 17 18  1  0
  8  1  1  0
 17  8  1  0
  1 19  1  0
  5 20  1  0
 10 21  1  6
 11 22  1  0
 11 23  1  0
 12 24  1  0
 13 25  1  1
 14 26  1  0
 15 27  1  6
 16 28  1  0
 17 29  1  1
 18 30  1  0
M  END
$$$$
