
     RDKit          3D

 46 49  0  0  0  0  0  0  0  0999 V2000
   -3.8546   -1.5983    1.6917 N   0  0  0  0  0  0  0  0  0  0  0  0
   -3.8205   -0.9921    0.4055 C   0  0  0  0  0  0  0  0  0  0  0  0
   -4.6584   -1.2574   -0.4958 O   0  0  0  0  0  0  0  0  0  0  0  0
   -2.6600   -0.0947    0.2703 C   0  0  0  0  0  0  0  0  0  0  0  0
   -2.0403   -0.1351    1.6114 C   0  0  0  0  0  0  0  0  0  0  0  0
   -2.7511   -1.0380    2.3882 C   0  0  0  0  0  0  0  0  0  0  0  0
   -2.4550   -1.2389    3.7359 C   0  0  0  0  0  0  0  0  0  0  0  0
   -1.4252   -0.4815    4.3131 C   0  0  0  0  0  0  0  0  0  0  0  0
   -0.7510    0.4927    3.5540 C   0  0  0  0  0  0  0  0  0  0  0  0
   -1.0790    0.6955    2.2036 C   0  0  0  0  0  0  0  0  0  0  0  0
   -2.2198    0.4776   -0.8696 C   0  0  0  0  0  0  0  0  0  0  0  0
   -3.0169    0.6096   -2.0534 N   0  0  0  0  0  0  0  0  0  0  0  0
   -2.1940    1.2665   -3.0111 C   0  0  0  0  0  0  0  0  0  0  0  0
   -2.5720    1.6471   -4.2982 C   0  0  0  0  0  0  0  0  0  0  0  0
   -1.6252    2.2989   -5.1052 C   0  0  0  0  0  0  0  0  0  0  0  0
   -0.3307    2.5614   -4.6140 C   0  0  0  0  0  0  0  0  0  0  0  0
    0.0294    2.1733   -3.3123 C   0  0  0  0  0  0  0  0  0  0  0  0
   -0.9270    1.5209   -2.5276 C   0  0  0  0  0  0  0  0  0  0  0  0
   -0.8726    1.0040   -1.1582 C   0  0  0  0  0  0  0  0  0  0  0  0
    0.1950    0.7394   -0.4732 N   0  0  0  0  0  0  0  0  0  0  0  0
    1.4579    1.0902   -0.8925 O   0  0  0  0  0  0  0  0  0  0  0  0
    2.5878    0.8247   -0.0735 C   0  0  0  0  0  0  0  0  0  0  0  0
    2.7885   -0.6859    0.0859 C   0  0  0  0  0  0  0  0  0  0  0  0
    4.0299   -1.0090    0.9402 C   0  0  1  0  0  0  0  0  0  0  0  0
    3.9054   -0.4707    2.2341 O   0  0  0  0  0  0  0  0  0  0  0  0
    4.2706   -2.5235    1.0102 C   0  0  0  0  0  0  0  0  0  0  0  0
    5.4210   -2.7846    1.7653 O   0  0  0  0  0  0  0  0  0  0  0  0
   -4.5727   -2.2591    2.0630 H   0  0  0  0  0  0  0  0  0  0  0  0
   -3.0221   -1.9439    4.3296 H   0  0  0  0  0  0  0  0  0  0  0  0
   -1.1774   -0.6173    5.3578 H   0  0  0  0  0  0  0  0  0  0  0  0
    0.0019    1.1129    4.0232 H   0  0  0  0  0  0  0  0  0  0  0  0
   -0.6307    1.5201    1.6723 H   0  0  0  0  0  0  0  0  0  0  0  0
   -4.0371    0.4218   -2.1636 H   0  0  0  0  0  0  0  0  0  0  0  0
   -3.5693    1.4456   -4.6668 H   0  0  0  0  0  0  0  0  0  0  0  0
   -1.8926    2.6042   -6.1085 H   0  0  0  0  0  0  0  0  0  0  0  0
    0.3896    3.0696   -5.2419 H   0  0  0  0  0  0  0  0  0  0  0  0
    1.0188    2.3941   -2.9387 H   0  0  0  0  0  0  0  0  0  0  0  0
    3.4846    1.2734   -0.5510 H   0  0  0  0  0  0  0  0  0  0  0  0
    2.4384    1.3025    0.9189 H   0  0  0  0  0  0  0  0  0  0  0  0
    1.8847   -1.1320    0.5564 H   0  0  0  0  0  0  0  0  0  0  0  0
    2.9078   -1.1351   -0.9244 H   0  0  0  0  0  0  0  0  0  0  0  0
    4.9183   -0.5458    0.4572 H   0  0  0  0  0  0  0  0  0  0  0  0
    3.1044   -0.8808    2.6547 H   0  0  0  0  0  0  0  0  0  0  0  0
    4.4053   -2.9254   -0.0193 H   0  0  0  0  0  0  0  0  0  0  0  0
    3.3929   -3.0251    1.4772 H   0  0  0  0  0  0  0  0  0  0  0  0
    5.5230   -3.7717    1.7792 H   0  0  0  0  0  0  0  0  0  0  0  0
  1  2  1  0
  2  3  2  0
  2  4  1  0
  4  5  1  0
  5  6  2  0
  6  7  1  0
  7  8  2  0
  8  9  1  0
  9 10  2  0
  4 11  2  0
 11 12  1  0
 12 13  1  0
 13 14  2  0
 14 15  1  0
 15 16  2  0
 16 17  1  0
 17 18  2  0
 18 19  1  0
 19 20  2  0
 20 21  1  0
 21 22  1  0
 22 23  1  0
 23 24  1  0
 24 25  1  0
 24 26  1  0
 26 27  1  0
  6  1  1  0
 19 11  1  0
 10  5  1  0
 18 13  1  0
  1 28  1  0
  7 29  1  0
  8 30  1  0
  9 31  1  0
 10 32  1  0
 12 33  1  0
 14 34  1  0
 15 35  1  0
 16 36  1  0
 17 37  1  0
 22 38  1  0
 22 39  1  0
 23 40  1  0
 23 41  1  0
 24 42  1  6
 25 43  1  0
 26 44  1  0
 26 45  1  0
 27 46  1  0
M  END
$$$$
