
     RDKit          3D

 20 21  0  0  0  0  0  0  0  0999 V2000
    4.0833   -1.0471    0.6405 N   0  0  0  0  0  0  0  0  0  0  0  0
    3.2830   -0.4582   -0.7741 S   0  0  0  0  0  6  0  0  0  0  0  0
    3.9516    0.7984   -1.2562 O   0  0  0  0  0  0  0  0  0  0  0  0
    3.3556   -1.4998   -1.8548 O   0  0  0  0  0  0  0  0  0  0  0  0
    1.6050   -0.1220   -0.4022 C   0  0  0  0  0  0  0  0  0  0  0  0
    0.5712   -0.8135   -0.9391 N   0  0  0  0  0  0  0  0  0  0  0  0
   -0.6141   -0.3447   -0.4728 C   0  0  0  0  0  0  0  0  0  0  0  0
   -0.5216    0.7070    0.4253 C   0  0  0  0  0  0  0  0  0  0  0  0
    1.0953    1.0883    0.6658 S   0  0  0  0  0  0  0  0  0  0  0  0
   -1.6479    1.2967    0.9929 C   0  0  0  0  0  0  0  0  0  0  0  0
   -2.9116    0.7983    0.6335 C   0  0  0  0  0  0  0  0  0  0  0  0
   -4.0552    1.3697    1.1863 O   0  0  0  0  0  0  0  0  0  0  0  0
   -3.0155   -0.2739   -0.2815 C   0  0  0  0  0  0  0  0  0  0  0  0
   -1.8616   -0.8508   -0.8395 C   0  0  0  0  0  0  0  0  0  0  0  0
    5.0860   -1.1919    0.3861 H   0  0  0  0  0  0  0  0  0  0  0  0
    4.0601   -0.2782    1.3473 H   0  0  0  0  0  0  0  0  0  0  0  0
   -1.5513    2.1171    1.6924 H   0  0  0  0  0  0  0  0  0  0  0  0
   -4.9815    1.0346    0.9488 H   0  0  0  0  0  0  0  0  0  0  0  0
   -3.9889   -0.6580   -0.5585 H   0  0  0  0  0  0  0  0  0  0  0  0
   -1.9417   -1.6721   -1.5402 H   0  0  0  0  0  0  0  0  0  0  0  0
  1  2  1  0
  2  3  2  0
  2  4  2  0
  2  5  1  0
  5  6  2  0
  6  7  1  0
  7  8  2  0
  8  9  1  0
  8 10  1  0
 10 11  2  0
 11 12  1  0
 11 13  1  0
 13 14  2  0
  9  5  1  0
 14  7  1  0
  1 15  1  0
  1 16  1  0
 10 17  1  0
 12 18  1  0
 13 19  1  0
 14 20  1  0
M  END
$$$$
