
     RDKit          3D

 33 34  0  0  0  0  0  0  0  0999 V2000
    1.0076   -0.6816   -1.6070 C   0  0  0  0  0  0  0  0  0  0  0  0
    1.7006   -0.4301   -0.2661 C   0  0  1  0  0  0  0  0  0  0  0  0
    0.7425   -0.6970    0.9097 C   0  0  0  0  0  0  0  0  0  0  0  0
   -0.3580    0.2658    0.9230 N   0  0  0  0  0  0  0  0  0  0  0  0
   -0.3192    1.5616    1.3267 C   0  0  0  0  0  0  0  0  0  0  0  0
   -1.5052    2.2121    1.1654 N   0  0  0  0  0  0  0  0  0  0  0  0
   -2.2961    1.2597    0.6347 C   0  0  0  0  0  0  0  0  0  0  0  0
   -1.6128    0.1022    0.4883 C   0  0  0  0  0  0  0  0  0  0  0  0
   -2.1671   -1.0131   -0.0449 N   0  0  0  0  0  0  0  0  0  0  0  0
   -3.4754   -0.9535   -0.4411 C   0  0  0  0  0  0  0  0  0  0  0  0
   -4.0986   -2.1043   -1.0060 N   0  0  0  0  0  0  0  0  0  0  0  0
   -4.1899    0.2107   -0.2992 N   0  0  0  0  0  0  0  0  0  0  0  0
   -3.6252    1.3348    0.2353 C   0  0  0  0  0  0  0  0  0  0  0  0
   -4.3843    2.5365    0.3681 N   0  0  0  0  0  0  0  0  0  0  0  0
    2.8125   -1.3053   -0.1741 O   0  0  0  0  0  0  0  0  0  0  0  0
    3.8972   -0.7038    0.5069 C   0  0  0  0  0  0  0  0  0  0  0  0
    5.0414    0.0527   -0.6883 P   0  0  0  0  0  5  0  0  0  0  0  0
    5.5366   -1.1144   -1.8072 O   0  0  0  0  0  1  0  0  0  0  0  0
    4.2746    1.3205   -1.5035 O   0  0  0  0  0  1  0  0  0  0  0  0
    6.2497    0.5885    0.0446 O   0  0  0  0  0  0  0  0  0  0  0  0
    0.1737    0.0357   -1.7583 H   0  0  0  0  0  0  0  0  0  0  0  0
    1.7354   -0.5415   -2.4344 H   0  0  0  0  0  0  0  0  0  0  0  0
    0.6118   -1.7187   -1.6546 H   0  0  0  0  0  0  0  0  0  0  0  0
    1.9993    0.6458   -0.2583 H   0  0  0  0  0  0  0  0  0  0  0  0
    0.3442   -1.7338    0.8512 H   0  0  0  0  0  0  0  0  0  0  0  0
    1.2993   -0.6148    1.8677 H   0  0  0  0  0  0  0  0  0  0  0  0
    0.5667    2.0365    1.7282 H   0  0  0  0  0  0  0  0  0  0  0  0
   -3.5628   -2.9933   -1.1194 H   0  0  0  0  0  0  0  0  0  0  0  0
   -5.0962   -2.0684   -1.3119 H   0  0  0  0  0  0  0  0  0  0  0  0
   -5.3808    2.5643    0.0577 H   0  0  0  0  0  0  0  0  0  0  0  0
   -3.9589    3.3993    0.7745 H   0  0  0  0  0  0  0  0  0  0  0  0
    3.5888    0.0470    1.2705 H   0  0  0  0  0  0  0  0  0  0  0  0
    4.4488   -1.5002    1.0473 H   0  0  0  0  0  0  0  0  0  0  0  0
  1  2  1  0
  2  3  1  0
  3  4  1  0
  4  5  1  0
  5  6  2  0
  6  7  1  0
  7  8  2  0
  8  9  1  0
  9 10  2  0
 10 11  1  0
 10 12  1  0
 12 13  2  0
 13 14  1  0
  2 15  1  0
 15 16  1  0
 16 17  1  0
 17 18  1  0
 17 19  1  0
 17 20  2  0
  8  4  1  0
 13  7  1  0
  1 21  1  0
  1 22  1  0
  1 23  1  0
  2 24  1  6
  3 25  1  0
  3 26  1  0
  5 27  1  0
 11 28  1  0
 11 29  1  0
 14 30  1  0
 14 31  1  0
 16 32  1  0
 16 33  1  0
M  CHG  2  18  -1  19  -1
M  END
$$$$
