
     RDKit          3D

 45 47  0  0  0  0  0  0  0  0999 V2000
   -1.9384    2.5428   -2.1419 C   0  0  0  0  0  0  0  0  0  0  0  0
   -3.0476    1.9784   -1.4496 O   0  0  0  0  0  0  0  0  0  0  0  0
   -2.9873    0.8117   -0.6725 C   0  0  0  0  0  0  0  0  0  0  0  0
   -4.1547    0.3771   -0.0378 C   0  0  0  0  0  0  0  0  0  0  0  0
   -4.1557   -0.7721    0.7585 C   0  0  0  0  0  0  0  0  0  0  0  0
   -5.3572   -1.1517    1.3756 O   0  0  0  0  0  0  0  0  0  0  0  0
   -5.5073   -2.2948    2.2112 C   0  0  0  0  0  0  0  0  0  0  0  0
   -2.9629   -1.5019    0.9160 C   0  0  0  0  0  0  0  0  0  0  0  0
   -1.7841   -1.0942    0.2714 C   0  0  0  0  0  0  0  0  0  0  0  0
   -0.5085   -1.8764    0.5002 C   0  0  0  0  0  0  0  0  0  0  0  0
    0.3855   -1.8359   -0.6685 N   0  0  0  0  0  0  0  0  0  0  0  0
   -0.0145   -2.5585   -1.8814 C   0  0  0  0  0  0  0  0  0  0  0  0
    1.6343   -1.1007   -0.6375 C   0  0  0  0  0  0  0  0  0  0  0  0
    2.7546   -1.5587   -1.3517 C   0  0  0  0  0  0  0  0  0  0  0  0
    3.9188   -0.8615   -1.3300 N   0  0  0  0  0  0  0  0  0  0  0  0
    4.0536    0.2949   -0.6333 C   0  0  0  0  0  0  0  0  0  0  0  0
    5.2405    0.9510   -0.6528 N   0  0  0  0  0  0  0  0  0  0  0  0
    5.4102    2.1117    0.0279 C   0  0  0  0  0  0  0  0  0  0  0  0
    6.6674    2.7827   -0.0085 N   0  0  0  0  0  0  0  0  0  0  0  0
    4.3819    2.6343    0.7434 N   0  0  0  0  0  0  0  0  0  0  0  0
    3.1665    2.0269    0.8056 C   0  0  0  0  0  0  0  0  0  0  0  0
    2.1396    2.6510    1.5873 N   0  0  0  0  0  0  0  0  0  0  0  0
    2.9671    0.8129    0.1031 C   0  0  0  0  0  0  0  0  0  0  0  0
    1.7543    0.0983    0.0912 C   0  0  0  0  0  0  0  0  0  0  0  0
   -1.8005    0.0742   -0.5115 C   0  0  0  0  0  0  0  0  0  0  0  0
   -1.5501    1.8225   -2.8928 H   0  0  0  0  0  0  0  0  0  0  0  0
   -1.1370    2.8143   -1.4224 H   0  0  0  0  0  0  0  0  0  0  0  0
   -2.2689    3.4612   -2.6687 H   0  0  0  0  0  0  0  0  0  0  0  0
   -5.0705    0.9421   -0.1603 H   0  0  0  0  0  0  0  0  0  0  0  0
   -4.8443   -2.2094    3.0979 H   0  0  0  0  0  0  0  0  0  0  0  0
   -6.5590   -2.3541    2.5588 H   0  0  0  0  0  0  0  0  0  0  0  0
   -5.2685   -3.2180    1.6419 H   0  0  0  0  0  0  0  0  0  0  0  0
   -2.9435   -2.3867    1.5383 H   0  0  0  0  0  0  0  0  0  0  0  0
   -0.0010   -1.4909    1.4094 H   0  0  0  0  0  0  0  0  0  0  0  0
   -0.7522   -2.9399    0.7163 H   0  0  0  0  0  0  0  0  0  0  0  0
   -1.0691   -2.9019   -1.8128 H   0  0  0  0  0  0  0  0  0  0  0  0
    0.0741   -1.8910   -2.7646 H   0  0  0  0  0  0  0  0  0  0  0  0
    0.6259   -3.4536   -2.0208 H   0  0  0  0  0  0  0  0  0  0  0  0
    2.7145   -2.4776   -1.9183 H   0  0  0  0  0  0  0  0  0  0  0  0
    7.4626    2.3864   -0.5571 H   0  0  0  0  0  0  0  0  0  0  0  0
    6.8047    3.6768    0.5131 H   0  0  0  0  0  0  0  0  0  0  0  0
    1.1839    2.2576    1.7107 H   0  0  0  0  0  0  0  0  0  0  0  0
    2.3456    3.5503    2.0765 H   0  0  0  0  0  0  0  0  0  0  0  0
    0.8931    0.4674    0.6199 H   0  0  0  0  0  0  0  0  0  0  0  0
   -0.8956    0.4029   -1.0001 H   0  0  0  0  0  0  0  0  0  0  0  0
  1  2  1  0
  2  3  1  0
  3  4  2  0
  4  5  1  0
  5  6  1  0
  6  7  1  0
  5  8  2  0
  8  9  1  0
  9 10  1  0
 10 11  1  0
 11 12  1  0
 11 13  1  0
 13 14  2  0
 14 15  1  0
 15 16  2  0
 16 17  1  0
 17 18  2  0
 18 19  1  0
 18 20  1  0
 20 21  2  0
 21 22  1  0
 21 23  1  0
 23 24  2  0
  9 25  2  0
 25  3  1  0
 24 13  1  0
 23 16  1  0
  1 26  1  0
  1 27  1  0
  1 28  1  0
  4 29  1  0
  7 30  1  0
  7 31  1  0
  7 32  1  0
  8 33  1  0
 10 34  1  0
 10 35  1  0
 12 36  1  0
 12 37  1  0
 12 38  1  0
 14 39  1  0
 19 40  1  0
 19 41  1  0
 22 42  1  0
 22 43  1  0
 24 44  1  0
 25 45  1  0
M  END
$$$$
