
     RDKit          3D

 68 72  0  0  0  0  0  0  0  0999 V2000
   -8.4722    1.9420   -1.8815 F   0  0  0  0  0  0  0  0  0  0  0  0
   -8.8630    0.6499   -2.1880 C   0  0  0  0  0  0  0  0  0  0  0  0
   -9.9797    0.3274   -1.4400 F   0  0  0  0  0  0  0  0  0  0  0  0
   -9.1921    0.6056   -3.5318 F   0  0  0  0  0  0  0  0  0  0  0  0
   -7.7574   -0.3272   -1.8759 C   0  0  0  0  0  0  0  0  0  0  0  0
   -6.8954   -0.1005   -0.7880 C   0  0  0  0  0  0  0  0  0  0  0  0
   -5.8936   -1.0308   -0.4596 C   0  0  0  0  0  0  0  0  0  0  0  0
   -5.7678   -2.2012   -1.2233 C   0  0  0  0  0  0  0  0  0  0  0  0
   -6.6374   -2.4455   -2.2877 C   0  0  0  0  0  0  0  0  0  0  0  0
   -7.6336   -1.5206   -2.6080 C   0  0  0  0  0  0  0  0  0  0  0  0
   -4.9997   -0.7882    0.6433 N   0  0  0  0  0  0  0  0  0  0  0  0
   -4.4532    0.5556    0.8709 C   0  0  0  0  0  0  0  0  0  0  0  0
   -3.0403    0.4511    1.4479 C   0  0  0  0  0  0  0  0  0  0  0  0
   -3.0523   -0.4255    2.6332 N   0  0  0  0  0  0  0  0  0  0  0  0
   -1.7997   -0.3784    3.4220 C   0  0  0  0  0  0  0  0  0  0  0  0
   -0.5315   -0.7961    2.6563 C   0  0  0  0  0  0  0  0  0  0  0  0
   -0.1147    0.2468    1.7805 O   0  0  0  0  0  0  0  0  0  0  0  0
    1.0004    0.1348    0.9438 C   0  0  0  0  0  0  0  0  0  0  0  0
    1.6850   -0.9250    0.9455 O   0  0  0  0  0  0  0  0  0  0  0  0
    1.3375    1.2483    0.0253 C   0  0  0  0  0  0  0  0  0  0  0  0
    0.3095    2.1221   -0.3753 C   0  0  0  0  0  0  0  0  0  0  0  0
    0.5593    3.1460   -1.2903 C   0  0  0  0  0  0  0  0  0  0  0  0
    1.8383    3.3175   -1.8157 C   0  0  0  0  0  0  0  0  0  0  0  0
    2.8754    2.4731   -1.4191 C   0  0  0  0  0  0  0  0  0  0  0  0
    2.6439    1.4362   -0.4970 C   0  0  0  0  0  0  0  0  0  0  0  0
    3.7528    0.6437   -0.0357 N   0  0  0  0  0  0  0  0  0  0  0  0
    4.8021    0.1823   -0.9073 C   0  0  0  0  0  0  0  0  0  0  0  0
    6.1470    0.1147   -0.4718 C   0  0  0  0  0  0  0  0  0  0  0  0
    6.5569    0.5815    0.7915 C   0  0  0  0  0  0  0  0  0  0  0  0
    7.8973    0.4960    1.1777 C   0  0  0  0  0  0  0  0  0  0  0  0
    8.8567   -0.0652    0.3194 C   0  0  0  0  0  0  0  0  0  0  0  0
    8.4622   -0.4912   -0.9592 C   0  0  0  0  0  0  0  0  0  0  0  0
    7.1227   -0.4082   -1.3551 C   0  0  0  0  0  0  0  0  0  0  0  0
    6.7653   -0.8239   -2.5989 N   0  0  0  0  0  0  0  0  0  0  0  0
    5.4823   -0.7584   -3.0351 C   0  0  0  0  0  0  0  0  0  0  0  0
    4.4827   -0.2601   -2.2012 C   0  0  0  0  0  0  0  0  0  0  0  0
   10.3091   -0.1098    0.7234 C   0  0  0  0  0  0  0  0  0  0  0  0
   10.9506   -1.1793    0.1228 F   0  0  0  0  0  0  0  0  0  0  0  0
   10.9265    1.0634    0.3320 F   0  0  0  0  0  0  0  0  0  0  0  0
   10.4315   -0.2480    2.0953 F   0  0  0  0  0  0  0  0  0  0  0  0
   -3.4697   -1.7952    2.2780 C   0  0  0  0  0  0  0  0  0  0  0  0
   -4.8989   -1.7681    1.7327 C   0  0  0  0  0  0  0  0  0  0  0  0
   -7.0116    0.7920   -0.1859 H   0  0  0  0  0  0  0  0  0  0  0  0
   -4.9906   -2.9206   -0.9988 H   0  0  0  0  0  0  0  0  0  0  0  0
   -6.5401   -3.3556   -2.8656 H   0  0  0  0  0  0  0  0  0  0  0  0
   -8.3070   -1.7385   -3.4273 H   0  0  0  0  0  0  0  0  0  0  0  0
   -4.4081    1.1252   -0.0834 H   0  0  0  0  0  0  0  0  0  0  0  0
   -5.1080    1.1044    1.5821 H   0  0  0  0  0  0  0  0  0  0  0  0
   -2.3663    0.0443    0.6616 H   0  0  0  0  0  0  0  0  0  0  0  0
   -2.6940    1.4707    1.7258 H   0  0  0  0  0  0  0  0  0  0  0  0
   -1.9072   -1.0362    4.3122 H   0  0  0  0  0  0  0  0  0  0  0  0
   -1.6582    0.6494    3.8218 H   0  0  0  0  0  0  0  0  0  0  0  0
   -0.6923   -1.7341    2.0875 H   0  0  0  0  0  0  0  0  0  0  0  0
    0.2782   -0.9838    3.3946 H   0  0  0  0  0  0  0  0  0  0  0  0
   -0.6979    2.0010    0.0024 H   0  0  0  0  0  0  0  0  0  0  0  0
   -0.2429    3.8053   -1.5960 H   0  0  0  0  0  0  0  0  0  0  0  0
    2.0300    4.1144   -2.5227 H   0  0  0  0  0  0  0  0  0  0  0  0
    3.8696    2.6435   -1.8125 H   0  0  0  0  0  0  0  0  0  0  0  0
    3.7915    0.3896    0.9760 H   0  0  0  0  0  0  0  0  0  0  0  0
    5.8592    1.0347    1.4816 H   0  0  0  0  0  0  0  0  0  0  0  0
    8.1858    0.8769    2.1495 H   0  0  0  0  0  0  0  0  0  0  0  0
    9.1959   -0.8838   -1.6533 H   0  0  0  0  0  0  0  0  0  0  0  0
    5.2355   -1.1025   -4.0306 H   0  0  0  0  0  0  0  0  0  0  0  0
    3.4600   -0.2373   -2.5558 H   0  0  0  0  0  0  0  0  0  0  0  0
   -2.8022   -2.2304    1.5026 H   0  0  0  0  0  0  0  0  0  0  0  0
   -3.4467   -2.4523    3.1748 H   0  0  0  0  0  0  0  0  0  0  0  0
   -5.6004   -1.4808    2.5457 H   0  0  0  0  0  0  0  0  0  0  0  0
   -5.1746   -2.7871    1.3868 H   0  0  0  0  0  0  0  0  0  0  0  0
  1  2  1  0
  2  3  1  0
  2  4  1  0
  2  5  1  0
  5  6  2  0
  6  7  1  0
  7  8  2  0
  8  9  1  0
  9 10  2  0
  7 11  1  0
 11 12  1  0
 12 13  1  0
 13 14  1  0
 14 15  1  0
 15 16  1  0
 16 17  1  0
 17 18  1  0
 18 19  2  0
 18 20  1  0
 20 21  2  0
 21 22  1  0
 22 23  2  0
 23 24  1  0
 24 25  2  0
 25 26  1  0
 26 27  1  0
 27 28  1  0
 28 29  2  0
 29 30  1  0
 30 31  2  0
 31 32  1  0
 32 33  2  0
 33 34  1  0
 34 35  2  0
 35 36  1  0
 31 37  1  0
 37 38  1  0
 37 39  1  0
 37 40  1  0
 14 41  1  0
 41 42  1  0
 10  5  1  0
 42 11  1  0
 25 20  1  0
 36 27  2  0
 33 28  1  0
  6 43  1  0
  8 44  1  0
  9 45  1  0
 10 46  1  0
 12 47  1  0
 12 48  1  0
 13 49  1  0
 13 50  1  0
 15 51  1  0
 15 52  1  0
 16 53  1  0
 16 54  1  0
 21 55  1  0
 22 56  1  0
 23 57  1  0
 24 58  1  0
 26 59  1  0
 29 60  1  0
 30 61  1  0
 32 62  1  0
 35 63  1  0
 36 64  1  0
 41 65  1  0
 41 66  1  0
 42 67  1  0
 42 68  1  0
M  END
$$$$
