
     RDKit          3D

 44 46  0  0  0  0  0  0  0  0999 V2000
   -5.3442    0.0301    2.0254 C   0  0  0  0  0  0  0  0  0  0  0  0
   -4.2785   -0.1365    0.9190 C   0  0  0  0  0  0  0  0  0  0  0  0
   -3.0189    0.6322    1.3701 C   0  0  0  0  0  0  0  0  0  0  0  0
   -4.8380    0.4790   -0.3824 C   0  0  0  0  0  0  0  0  0  0  0  0
   -3.9925   -1.5892    0.7878 N   0  0  0  0  0  0  0  0  0  0  0  0
   -3.0166   -2.0945   -0.5740 S   0  0  0  0  0  6  0  0  0  0  0  0
   -2.8122   -3.5801   -0.4778 O   0  0  0  0  0  0  0  0  0  0  0  0
   -3.7386   -1.8165   -1.8634 O   0  0  0  0  0  0  0  0  0  0  0  0
   -1.4240   -1.3438   -0.5859 C   0  0  0  0  0  0  0  0  0  0  0  0
   -1.0405   -0.4922   -1.6303 C   0  0  0  0  0  0  0  0  0  0  0  0
    0.2210    0.1094   -1.6202 C   0  0  0  0  0  0  0  0  0  0  0  0
    1.1207   -0.1353   -0.5668 C   0  0  0  0  0  0  0  0  0  0  0  0
    0.7306   -0.9978    0.4738 C   0  0  0  0  0  0  0  0  0  0  0  0
   -0.5314   -1.5975    0.4619 C   0  0  0  0  0  0  0  0  0  0  0  0
    2.4595    0.5064   -0.5531 C   0  0  0  0  0  0  0  0  0  0  0  0
    3.5984   -0.2268   -0.1374 C   0  0  0  0  0  0  0  0  0  0  0  0
    4.8291    0.4242   -0.1441 C   0  0  0  0  0  0  0  0  0  0  0  0
    4.9636    1.7249   -0.5331 C   0  0  0  0  0  0  0  0  0  0  0  0
    6.2532    2.0954   -0.4442 N   0  0  0  0  0  0  0  0  0  0  0  0
    6.9626    1.0604   -0.0056 N   0  0  0  0  0  0  0  0  0  0  0  0
    6.1078    0.0282    0.1832 C   0  0  0  0  0  0  0  0  0  0  0  0
    6.5034   -1.2598    0.6514 N   0  0  0  0  0  0  0  0  0  0  0  0
    3.8747    2.4838   -0.9480 C   0  0  0  0  0  0  0  0  0  0  0  0
    2.6111    1.8635   -0.9563 C   0  0  0  0  0  0  0  0  0  0  0  0
   -6.2886   -0.4825    1.7412 H   0  0  0  0  0  0  0  0  0  0  0  0
   -5.5780    1.1025    2.2030 H   0  0  0  0  0  0  0  0  0  0  0  0
   -4.9829   -0.4123    2.9790 H   0  0  0  0  0  0  0  0  0  0  0  0
   -2.4927    0.0771    2.1760 H   0  0  0  0  0  0  0  0  0  0  0  0
   -3.2863    1.6395    1.7567 H   0  0  0  0  0  0  0  0  0  0  0  0
   -2.3189    0.8033    0.5311 H   0  0  0  0  0  0  0  0  0  0  0  0
   -5.2195    1.5062   -0.1960 H   0  0  0  0  0  0  0  0  0  0  0  0
   -4.0507    0.5661   -1.1595 H   0  0  0  0  0  0  0  0  0  0  0  0
   -5.6738   -0.1377   -0.7767 H   0  0  0  0  0  0  0  0  0  0  0  0
   -4.8959   -2.1097    0.6945 H   0  0  0  0  0  0  0  0  0  0  0  0
   -1.7166   -0.2870   -2.4500 H   0  0  0  0  0  0  0  0  0  0  0  0
    0.4985    0.7538   -2.4449 H   0  0  0  0  0  0  0  0  0  0  0  0
    1.3936   -1.1929    1.3073 H   0  0  0  0  0  0  0  0  0  0  0  0
   -0.8189   -2.2502    1.2767 H   0  0  0  0  0  0  0  0  0  0  0  0
    3.5277   -1.2649    0.1608 H   0  0  0  0  0  0  0  0  0  0  0  0
    6.6529    3.0317   -0.6761 H   0  0  0  0  0  0  0  0  0  0  0  0
    5.8008   -2.0209    0.7801 H   0  0  0  0  0  0  0  0  0  0  0  0
    7.5058   -1.4514    0.8706 H   0  0  0  0  0  0  0  0  0  0  0  0
    3.9930    3.5161   -1.2507 H   0  0  0  0  0  0  0  0  0  0  0  0
    1.7501    2.4454   -1.2598 H   0  0  0  0  0  0  0  0  0  0  0  0
  1  2  1  0
  2  3  1  0
  2  4  1  0
  2  5  1  0
  5  6  1  0
  6  7  2  0
  6  8  2  0
  6  9  1  0
  9 10  2  0
 10 11  1  0
 11 12  2  0
 12 13  1  0
 13 14  2  0
 12 15  1  0
 15 16  2  0
 16 17  1  0
 17 18  2  0
 18 19  1  0
 19 20  1  0
 20 21  2  0
 21 22  1  0
 18 23  1  0
 23 24  2  0
 14  9  1  0
 24 15  1  0
 21 17  1  0
  1 25  1  0
  1 26  1  0
  1 27  1  0
  3 28  1  0
  3 29  1  0
  3 30  1  0
  4 31  1  0
  4 32  1  0
  4 33  1  0
  5 34  1  0
 10 35  1  0
 11 36  1  0
 13 37  1  0
 14 38  1  0
 16 39  1  0
 19 40  1  0
 22 41  1  0
 22 42  1  0
 23 43  1  0
 24 44  1  0
M  END
$$$$
