
     RDKit          3D

 72 75  0  0  0  0  0  0  0  0999 V2000
    9.2927   -1.8669   -1.8868 C   0  0  0  0  0  0  0  0  0  0  0  0
    8.2021   -0.9013   -1.4396 C   0  0  0  0  0  0  0  0  0  0  0  0
    7.1066   -0.8931   -2.4182 N   0  0  0  0  0  0  0  0  0  0  0  0
    5.9657   -0.0987   -1.9397 C   0  0  0  0  0  0  0  0  0  0  0  0
    4.9990   -0.9797   -1.1422 C   0  0  0  0  0  0  0  0  0  0  0  0
    3.7986   -0.1857   -0.7018 C   0  0  0  0  0  0  0  0  0  0  0  0
    2.6618   -0.1068   -1.5211 C   0  0  0  0  0  0  0  0  0  0  0  0
    1.5551    0.6464   -1.1205 C   0  0  0  0  0  0  0  0  0  0  0  0
    1.5751    1.3416    0.0991 C   0  0  0  0  0  0  0  0  0  0  0  0
    0.3496    2.0701    0.5788 C   0  0  0  0  0  0  0  0  0  0  0  0
   -0.4153    1.2213    1.5030 N   0  0  0  0  0  0  0  0  0  0  0  0
   -0.5016    1.5443    2.9338 C   0  0  0  0  0  0  0  0  0  0  0  0
    0.2038    0.4883    3.7792 C   0  0  0  0  0  0  0  0  0  0  0  0
   -1.0986    0.0670    0.9815 C   0  0  0  0  0  0  0  0  0  0  0  0
   -2.4239    0.1516    0.4797 C   0  0  0  0  0  0  0  0  0  0  0  0
   -2.9897   -1.0002   -0.1049 C   0  0  0  0  0  0  0  0  0  0  0  0
   -2.2718   -2.1940   -0.1863 C   0  0  0  0  0  0  0  0  0  0  0  0
   -0.9696   -2.2754    0.3053 C   0  0  0  0  0  0  0  0  0  0  0  0
   -0.2807   -3.4909    0.1787 O   0  0  0  0  0  0  0  0  0  0  0  0
    1.0699   -3.6942    0.5827 C   0  0  0  0  0  0  0  0  0  0  0  0
   -0.3914   -1.1419    0.8954 C   0  0  0  0  0  0  0  0  0  0  0  0
   -3.2248    1.4536    0.5725 C   0  0  2  0  0  0  0  0  0  0  0  0
   -4.2526    1.4444    1.7186 C   0  0  0  0  0  0  0  0  0  0  0  0
   -5.4623    0.5530    1.4319 C   0  0  0  0  0  0  0  0  0  0  0  0
   -6.0340    0.7672    0.0533 C   0  0  0  0  0  0  0  0  0  0  0  0
   -7.3319    0.3029   -0.2166 C   0  0  0  0  0  0  0  0  0  0  0  0
   -7.8749    0.4123   -1.5026 C   0  0  0  0  0  0  0  0  0  0  0  0
   -9.1649   -0.0406   -1.7700 O   0  0  0  0  0  0  0  0  0  0  0  0
   -7.1172    0.9781   -2.5293 C   0  0  0  0  0  0  0  0  0  0  0  0
   -5.8204    1.4300   -2.2783 C   0  0  0  0  0  0  0  0  0  0  0  0
   -5.2597    1.3166   -0.9960 C   0  0  0  0  0  0  0  0  0  0  0  0
   -3.8730    1.8727   -0.7651 C   0  0  0  0  0  0  0  0  0  0  0  0
    2.7161    1.2728    0.9122 C   0  0  0  0  0  0  0  0  0  0  0  0
    3.8239    0.5212    0.5106 C   0  0  0  0  0  0  0  0  0  0  0  0
    8.8763   -2.8917   -1.9870 H   0  0  0  0  0  0  0  0  0  0  0  0
    9.7130   -1.5457   -2.8635 H   0  0  0  0  0  0  0  0  0  0  0  0
   10.1094   -1.8832   -1.1345 H   0  0  0  0  0  0  0  0  0  0  0  0
    7.8343   -1.2312   -0.4441 H   0  0  0  0  0  0  0  0  0  0  0  0
    8.6386    0.1179   -1.3381 H   0  0  0  0  0  0  0  0  0  0  0  0
    7.4675   -0.4376   -3.2899 H   0  0  0  0  0  0  0  0  0  0  0  0
    5.4177    0.3131   -2.8174 H   0  0  0  0  0  0  0  0  0  0  0  0
    6.2994    0.7687   -1.3245 H   0  0  0  0  0  0  0  0  0  0  0  0
    5.5110   -1.4026   -0.2517 H   0  0  0  0  0  0  0  0  0  0  0  0
    4.6755   -1.8377   -1.7719 H   0  0  0  0  0  0  0  0  0  0  0  0
    2.6293   -0.6357   -2.4655 H   0  0  0  0  0  0  0  0  0  0  0  0
    0.6756    0.6726   -1.7521 H   0  0  0  0  0  0  0  0  0  0  0  0
    0.6576    3.0188    1.0687 H   0  0  0  0  0  0  0  0  0  0  0  0
   -0.2935    2.3584   -0.2813 H   0  0  0  0  0  0  0  0  0  0  0  0
   -0.0352    2.5302    3.1452 H   0  0  0  0  0  0  0  0  0  0  0  0
   -1.5646    1.6120    3.2410 H   0  0  0  0  0  0  0  0  0  0  0  0
   -0.3244   -0.4850    3.7024 H   0  0  0  0  0  0  0  0  0  0  0  0
    1.2543    0.3650    3.4419 H   0  0  0  0  0  0  0  0  0  0  0  0
    0.2045    0.8035    4.8437 H   0  0  0  0  0  0  0  0  0  0  0  0
   -3.9864   -0.9862   -0.5171 H   0  0  0  0  0  0  0  0  0  0  0  0
   -2.7289   -3.0611   -0.6462 H   0  0  0  0  0  0  0  0  0  0  0  0
    1.7420   -3.0032    0.0303 H   0  0  0  0  0  0  0  0  0  0  0  0
    1.3647   -4.7380    0.3508 H   0  0  0  0  0  0  0  0  0  0  0  0
    1.1700   -3.5312    1.6766 H   0  0  0  0  0  0  0  0  0  0  0  0
    0.6216   -1.1789    1.2727 H   0  0  0  0  0  0  0  0  0  0  0  0
   -2.5212    2.2766    0.8159 H   0  0  0  0  0  0  0  0  0  0  0  0
   -3.7729    1.1070    2.6614 H   0  0  0  0  0  0  0  0  0  0  0  0
   -4.6117    2.4845    1.8847 H   0  0  0  0  0  0  0  0  0  0  0  0
   -6.2414    0.7675    2.1958 H   0  0  0  0  0  0  0  0  0  0  0  0
   -5.1771   -0.5139    1.5464 H   0  0  0  0  0  0  0  0  0  0  0  0
   -7.9199   -0.1494    0.5730 H   0  0  0  0  0  0  0  0  0  0  0  0
   -9.7407   -0.4567   -1.0474 H   0  0  0  0  0  0  0  0  0  0  0  0
   -7.5343    1.0684   -3.5242 H   0  0  0  0  0  0  0  0  0  0  0  0
   -5.2507    1.8724   -3.0864 H   0  0  0  0  0  0  0  0  0  0  0  0
   -3.2045    1.5876   -1.6076 H   0  0  0  0  0  0  0  0  0  0  0  0
   -3.9584    2.9816   -0.7837 H   0  0  0  0  0  0  0  0  0  0  0  0
    2.7433    1.7936    1.8613 H   0  0  0  0  0  0  0  0  0  0  0  0
    4.6985    0.4835    1.1482 H   0  0  0  0  0  0  0  0  0  0  0  0
  1  2  1  0
  2  3  1  0
  3  4  1  0
  4  5  1  0
  5  6  1  0
  6  7  2  0
  7  8  1  0
  8  9  2  0
  9 10  1  0
 10 11  1  0
 11 12  1  0
 12 13  1  0
 11 14  1  0
 14 15  1  0
 15 16  2  0
 16 17  1  0
 17 18  2  0
 18 19  1  0
 19 20  1  0
 18 21  1  0
 15 22  1  0
 22 23  1  0
 23 24  1  0
 24 25  1  0
 25 26  2  0
 26 27  1  0
 27 28  1  0
 27 29  2  0
 29 30  1  0
 30 31  2  0
 31 32  1  0
  9 33  1  0
 33 34  2  0
 34  6  1  0
 21 14  2  0
 32 22  1  0
 31 25  1  0
  1 35  1  0
  1 36  1  0
  1 37  1  0
  2 38  1  0
  2 39  1  0
  3 40  1  0
  4 41  1  0
  4 42  1  0
  5 43  1  0
  5 44  1  0
  7 45  1  0
  8 46  1  0
 10 47  1  0
 10 48  1  0
 12 49  1  0
 12 50  1  0
 13 51  1  0
 13 52  1  0
 13 53  1  0
 16 54  1  0
 17 55  1  0
 20 56  1  0
 20 57  1  0
 20 58  1  0
 21 59  1  0
 22 60  1  1
 23 61  1  0
 23 62  1  0
 24 63  1  0
 24 64  1  0
 26 65  1  0
 28 66  1  0
 29 67  1  0
 30 68  1  0
 32 69  1  0
 32 70  1  0
 33 71  1  0
 34 72  1  0
M  END
$$$$
