
     RDKit          3D

 43 46  0  0  0  0  0  0  0  0999 V2000
  -10.0892    0.5842   -2.3773 Cl  0  0  0  0  0  0  0  0  0  0  0  0
   -8.7725    0.1093   -1.3201 C   0  0  0  0  0  0  0  0  0  0  0  0
   -9.0278   -0.6880   -0.2003 C   0  0  0  0  0  0  0  0  0  0  0  0
   -7.9809   -1.0571    0.6478 C   0  0  0  0  0  0  0  0  0  0  0  0
   -6.6750   -0.6387    0.3747 C   0  0  0  0  0  0  0  0  0  0  0  0
   -6.4041    0.1450   -0.7626 C   0  0  0  0  0  0  0  0  0  0  0  0
   -5.0751    0.6104   -1.0547 N   0  0  0  0  0  0  0  0  0  0  0  0
   -3.8804   -0.1399   -0.7866 C   0  0  0  0  0  0  0  0  0  0  0  0
   -3.9533   -1.3614   -0.4818 O   0  0  0  0  0  0  0  0  0  0  0  0
   -2.6022    0.5018   -0.9110 N   0  0  0  0  0  0  0  0  0  0  0  0
   -1.3494   -0.1540   -0.6746 C   0  0  0  0  0  0  0  0  0  0  0  0
   -1.2283   -1.4470   -0.2971 N   0  0  0  0  0  0  0  0  0  0  0  0
    0.0735   -1.8035   -0.1362 C   0  0  0  0  0  0  0  0  0  0  0  0
    0.9901   -0.7904   -0.3976 C   0  0  0  0  0  0  0  0  0  0  0  0
    2.4741   -0.8853   -0.2324 C   0  0  0  0  0  0  0  0  0  0  0  0
    2.8777   -0.5385    1.2023 C   0  0  0  0  0  0  0  0  0  0  0  0
    4.3268   -0.6387    1.3632 N   0  0  0  0  0  0  0  0  0  0  0  0
    5.2303    0.3556    0.8554 C   0  0  0  0  0  0  0  0  0  0  0  0
    6.6113    0.2126    0.9773 C   0  0  0  0  0  0  0  0  0  0  0  0
    7.5268   -1.0186    1.6622 S   0  0  0  0  0  0  0  0  0  0  0  0
    9.0237   -0.3013    1.3248 C   0  0  0  0  0  0  0  0  0  0  0  0
    8.8122    0.9117    0.6701 C   0  0  0  0  0  0  0  0  0  0  0  0
    7.4557    1.1844    0.4829 C   0  0  0  0  0  0  0  0  0  0  0  0
    6.9584    2.2901   -0.1251 N   0  0  0  0  0  0  0  0  0  0  0  0
    5.6073    2.4370   -0.2458 C   0  0  0  0  0  0  0  0  0  0  0  0
    4.7602    1.4804    0.2402 N   0  0  0  0  0  0  0  0  0  0  0  0
    0.1460    0.6039   -0.8181 S   0  0  0  0  0  0  0  0  0  0  0  0
   -7.4665    0.5304   -1.5956 C   0  0  0  0  0  0  0  0  0  0  0  0
  -10.0367   -1.0144    0.0182 H   0  0  0  0  0  0  0  0  0  0  0  0
   -8.1828   -1.6607    1.5233 H   0  0  0  0  0  0  0  0  0  0  0  0
   -5.8866   -0.9059    1.0654 H   0  0  0  0  0  0  0  0  0  0  0  0
   -4.9738    1.5133   -1.5711 H   0  0  0  0  0  0  0  0  0  0  0  0
   -2.5792    1.5098   -1.1839 H   0  0  0  0  0  0  0  0  0  0  0  0
    0.3610   -2.7981    0.1779 H   0  0  0  0  0  0  0  0  0  0  0  0
    2.8089   -1.9172   -0.4747 H   0  0  0  0  0  0  0  0  0  0  0  0
    2.9622   -0.1891   -0.9467 H   0  0  0  0  0  0  0  0  0  0  0  0
    2.3857   -1.2511    1.9005 H   0  0  0  0  0  0  0  0  0  0  0  0
    2.5390    0.4872    1.4673 H   0  0  0  0  0  0  0  0  0  0  0  0
    4.7037   -1.4438    1.9122 H   0  0  0  0  0  0  0  0  0  0  0  0
    9.9905   -0.7161    1.5755 H   0  0  0  0  0  0  0  0  0  0  0  0
    9.6108    1.5653    0.3445 H   0  0  0  0  0  0  0  0  0  0  0  0
    5.2036    3.3161   -0.7289 H   0  0  0  0  0  0  0  0  0  0  0  0
   -7.2757    1.1495   -2.4635 H   0  0  0  0  0  0  0  0  0  0  0  0
  1  2  1  0
  2  3  2  0
  3  4  1  0
  4  5  2  0
  5  6  1  0
  6  7  1  0
  7  8  1  0
  8  9  2  0
  8 10  1  0
 10 11  1  0
 11 12  2  0
 12 13  1  0
 13 14  2  0
 14 15  1  0
 15 16  1  0
 16 17  1  0
 17 18  1  0
 18 19  2  0
 19 20  1  0
 20 21  1  0
 21 22  2  0
 22 23  1  0
 23 24  2  0
 24 25  1  0
 25 26  2  0
 14 27  1  0
  6 28  2  0
 28  2  1  0
 27 11  1  0
 26 18  1  0
 23 19  1  0
  3 29  1  0
  4 30  1  0
  5 31  1  0
  7 32  1  0
 10 33  1  0
 13 34  1  0
 15 35  1  0
 15 36  1  0
 16 37  1  0
 16 38  1  0
 17 39  1  0
 21 40  1  0
 22 41  1  0
 25 42  1  0
 28 43  1  0
M  END
$$$$
