
     RDKit          3D

 20 19  0  0  0  0  0  0  0  0999 V2000
   -1.1142   -0.7562    1.0130 N   0  0  0  0  0  0  0  0  0  0  0  0
   -1.3296    0.6512    0.6709 C   0  0  1  0  0  0  0  0  0  0  0  0
   -0.3410    1.1014   -0.4138 C   0  0  0  0  0  0  0  0  0  0  0  0
    1.3792    1.0630    0.2146 S   0  0  0  0  0  0  0  0  0  0  0  0
    1.8728   -0.4678   -0.6450 C   0  0  0  0  0  0  0  0  0  0  0  0
    3.2703   -0.8196   -0.2606 C   0  0  0  0  0  0  0  0  0  0  0  0
    3.5025   -1.6039    0.8648 O   0  0  0  0  0  0  0  0  0  0  0  0
    4.2407   -0.3739   -0.9296 O   0  0  0  0  0  0  0  0  0  0  0  0
   -2.7470    0.8732    0.2132 C   0  0  0  0  0  0  0  0  0  0  0  0
   -3.2182    0.2426   -0.9351 O   0  0  0  0  0  0  0  0  0  0  0  0
   -3.5115    1.6277    0.8723 O   0  0  0  0  0  0  0  0  0  0  0  0
   -1.3605   -1.3577    0.1927 H   0  0  0  0  0  0  0  0  0  0  0  0
   -1.7608   -1.0132    1.7943 H   0  0  0  0  0  0  0  0  0  0  0  0
   -1.1477    1.2672    1.5805 H   0  0  0  0  0  0  0  0  0  0  0  0
   -0.5643    2.1536   -0.6933 H   0  0  0  0  0  0  0  0  0  0  0  0
   -0.4567    0.4835   -1.3306 H   0  0  0  0  0  0  0  0  0  0  0  0
    1.1959   -1.3001   -0.3612 H   0  0  0  0  0  0  0  0  0  0  0  0
    1.8139   -0.3160   -1.7441 H   0  0  0  0  0  0  0  0  0  0  0  0
    4.4462   -1.8383    1.1488 H   0  0  0  0  0  0  0  0  0  0  0  0
   -4.1700    0.3832   -1.2517 H   0  0  0  0  0  0  0  0  0  0  0  0
  1  2  1  0
  2  3  1  0
  3  4  1  0
  4  5  1  0
  5  6  1  0
  6  7  1  0
  6  8  2  0
  2  9  1  0
  9 10  1  0
  9 11  2  0
  1 12  1  0
  1 13  1  0
  2 14  1  1
  3 15  1  0
  3 16  1  0
  5 17  1  0
  5 18  1  0
  7 19  1  0
 10 20  1  0
M  END
$$$$
