
     RDKit          3D

 48 50  0  0  0  0  0  0  0  0999 V2000
   -5.7325   -2.0223   -0.7991 O   0  0  0  0  0  0  0  0  0  0  0  0
   -5.0942   -0.8322   -0.9041 N   0  0  0  0  0  0  0  0  0  0  0  0
   -4.0406   -0.4999    0.0134 C   0  0  0  0  0  0  0  0  0  0  0  0
   -3.7783   -1.3120    0.9432 O   0  0  0  0  0  0  0  0  0  0  0  0
   -3.2487    0.8121   -0.0597 C   0  0  0  0  0  0  0  0  0  0  0  0
   -1.7254    0.4985    0.0491 C   0  0  0  0  0  0  0  0  0  0  0  0
   -1.0590   -0.4678   -1.3123 S   0  0  0  0  0  6  0  0  0  0  0  0
   -0.9816    0.3714   -2.5571 O   0  0  0  0  0  0  0  0  0  0  0  0
   -1.9145   -1.6711   -1.5949 O   0  0  0  0  0  0  0  0  0  0  0  0
    0.5594   -1.0002   -0.8705 C   0  0  0  0  0  0  0  0  0  0  0  0
    0.7384   -2.2017   -0.1725 C   0  0  0  0  0  0  0  0  0  0  0  0
    2.0216   -2.6173    0.1948 C   0  0  0  0  0  0  0  0  0  0  0  0
    3.1371   -1.8299   -0.1127 C   0  0  0  0  0  0  0  0  0  0  0  0
    4.4091   -2.2882    0.2605 O   0  0  0  0  0  0  0  0  0  0  0  0
    5.5046   -1.4734    0.5825 C   0  0  0  0  0  0  0  0  0  0  0  0
    6.7963   -1.9531    0.3326 C   0  0  0  0  0  0  0  0  0  0  0  0
    7.9141   -1.1767    0.6535 C   0  0  0  0  0  0  0  0  0  0  0  0
    7.7480    0.0823    1.2399 C   0  0  0  0  0  0  0  0  0  0  0  0
    9.1506    1.0549    1.6442 Cl  0  0  0  0  0  0  0  0  0  0  0  0
    6.4621    0.5606    1.5117 C   0  0  0  0  0  0  0  0  0  0  0  0
    5.3434   -0.2146    1.1910 C   0  0  0  0  0  0  0  0  0  0  0  0
    2.9572   -0.6298   -0.8240 C   0  0  0  0  0  0  0  0  0  0  0  0
    1.6741   -0.2144   -1.1918 C   0  0  0  0  0  0  0  0  0  0  0  0
   -3.6507    1.6868    1.1546 C   0  0  0  0  0  0  0  0  0  0  0  0
   -5.1069    2.2005    1.0457 C   0  0  0  0  0  0  0  0  0  0  0  0
   -5.6677    2.0336   -0.2456 O   0  0  0  0  0  0  0  0  0  0  0  0
   -4.7844    2.5276   -1.2313 C   0  0  0  0  0  0  0  0  0  0  0  0
   -3.5233    1.6446   -1.3493 C   0  0  0  0  0  0  0  0  0  0  0  0
   -6.5031   -1.8453   -0.2011 H   0  0  0  0  0  0  0  0  0  0  0  0
   -5.3946   -0.1853   -1.6635 H   0  0  0  0  0  0  0  0  0  0  0  0
   -1.1449    1.4452    0.1011 H   0  0  0  0  0  0  0  0  0  0  0  0
   -1.5166   -0.0495    0.9935 H   0  0  0  0  0  0  0  0  0  0  0  0
   -0.1141   -2.8155    0.0895 H   0  0  0  0  0  0  0  0  0  0  0  0
    2.1494   -3.5494    0.7303 H   0  0  0  0  0  0  0  0  0  0  0  0
    6.9331   -2.9275   -0.1190 H   0  0  0  0  0  0  0  0  0  0  0  0
    8.9073   -1.5549    0.4479 H   0  0  0  0  0  0  0  0  0  0  0  0
    6.3285    1.5286    1.9776 H   0  0  0  0  0  0  0  0  0  0  0  0
    4.3574    0.1585    1.4348 H   0  0  0  0  0  0  0  0  0  0  0  0
    3.8076   -0.0243   -1.1085 H   0  0  0  0  0  0  0  0  0  0  0  0
    1.5518    0.7174   -1.7291 H   0  0  0  0  0  0  0  0  0  0  0  0
   -2.9774    2.5719    1.2075 H   0  0  0  0  0  0  0  0  0  0  0  0
   -3.5184    1.1279    2.1080 H   0  0  0  0  0  0  0  0  0  0  0  0
   -5.7361    1.6312    1.7623 H   0  0  0  0  0  0  0  0  0  0  0  0
   -5.1631    3.2696    1.3492 H   0  0  0  0  0  0  0  0  0  0  0  0
   -5.3128    2.5358   -2.2079 H   0  0  0  0  0  0  0  0  0  0  0  0
   -4.5033    3.5843   -1.0130 H   0  0  0  0  0  0  0  0  0  0  0  0
   -3.5909    0.9846   -2.2399 H   0  0  0  0  0  0  0  0  0  0  0  0
   -2.6681    2.3284   -1.5472 H   0  0  0  0  0  0  0  0  0  0  0  0
  1  2  1  0
  2  3  1  0
  3  4  2  0
  3  5  1  0
  5  6  1  0
  6  7  1  0
  7  8  2  0
  7  9  2  0
  7 10  1  0
 10 11  2  0
 11 12  1  0
 12 13  2  0
 13 14  1  0
 14 15  1  0
 15 16  2  0
 16 17  1  0
 17 18  2  0
 18 19  1  0
 18 20  1  0
 20 21  2  0
 13 22  1  0
 22 23  2  0
  5 24  1  0
 24 25  1  0
 25 26  1  0
 26 27  1  0
 27 28  1  0
 28  5  1  0
 23 10  1  0
 21 15  1  0
  1 29  1  0
  2 30  1  0
  6 31  1  0
  6 32  1  0
 11 33  1  0
 12 34  1  0
 16 35  1  0
 17 36  1  0
 20 37  1  0
 21 38  1  0
 22 39  1  0
 23 40  1  0
 24 41  1  0
 24 42  1  0
 25 43  1  0
 25 44  1  0
 27 45  1  0
 27 46  1  0
 28 47  1  0
 28 48  1  0
M  END
$$$$
