
     RDKit          3D

 42 42  0  0  0  0  0  0  0  0999 V2000
   -4.6253    0.3154    1.9496 C   0  0  0  0  0  0  0  0  0  0  0  0
   -4.3959   -0.0368    0.4817 C   0  0  0  0  0  0  0  0  0  0  0  0
   -3.4872   -1.1968    0.3524 N   0  0  0  0  0  0  0  0  0  0  0  0
   -3.6821   -1.9826   -0.8863 C   0  0  0  0  0  0  0  0  0  0  0  0
   -3.2050   -1.2663   -2.1516 C   0  0  0  0  0  0  0  0  0  0  0  0
   -2.0687   -0.9907    0.7436 C   0  0  0  0  0  0  0  0  0  0  0  0
   -1.4576    0.3542    0.2968 C   0  0  0  0  0  0  0  0  0  0  0  0
   -0.0112    0.3642    0.5144 N   0  0  0  0  0  0  0  0  0  0  0  0
    0.7918    1.4931    0.1404 C   0  0  0  0  0  0  0  0  0  0  0  0
    0.2349    2.5768   -0.1868 O   0  0  0  0  0  0  0  0  0  0  0  0
    2.2702    1.4158    0.1674 C   0  0  0  0  0  0  0  0  0  0  0  0
    3.0035    2.5277    0.6110 C   0  0  0  0  0  0  0  0  0  0  0  0
    4.3995    2.4922    0.6653 C   0  0  0  0  0  0  0  0  0  0  0  0
    5.2492    3.9191    1.2473 Cl  0  0  0  0  0  0  0  0  0  0  0  0
    5.0874    1.3326    0.2637 C   0  0  0  0  0  0  0  0  0  0  0  0
    6.5184    1.2619    0.3115 N   0  0  0  0  0  0  0  0  0  0  0  0
    4.3607    0.2270   -0.1994 C   0  0  0  0  0  0  0  0  0  0  0  0
    2.9540    0.2596   -0.2643 C   0  0  0  0  0  0  0  0  0  0  0  0
    2.2168   -0.8227   -0.7743 O   0  0  0  0  0  0  0  0  0  0  0  0
    2.7819   -2.0444   -1.2382 C   0  0  0  0  0  0  0  0  0  0  0  0
   -5.0028   -0.5731    2.4989 H   0  0  0  0  0  0  0  0  0  0  0  0
   -3.6867    0.6656    2.4256 H   0  0  0  0  0  0  0  0  0  0  0  0
   -5.3788    1.1277    2.0238 H   0  0  0  0  0  0  0  0  0  0  0  0
   -4.0171    0.8469   -0.0726 H   0  0  0  0  0  0  0  0  0  0  0  0
   -5.3912   -0.2810    0.0492 H   0  0  0  0  0  0  0  0  0  0  0  0
   -4.7585   -2.2362   -1.0015 H   0  0  0  0  0  0  0  0  0  0  0  0
   -3.1499   -2.9548   -0.7993 H   0  0  0  0  0  0  0  0  0  0  0  0
   -2.0968   -1.2214   -2.1770 H   0  0  0  0  0  0  0  0  0  0  0  0
   -3.5384   -1.8385   -3.0428 H   0  0  0  0  0  0  0  0  0  0  0  0
   -3.6305   -0.2438   -2.2168 H   0  0  0  0  0  0  0  0  0  0  0  0
   -1.4416   -1.8213    0.3491 H   0  0  0  0  0  0  0  0  0  0  0  0
   -1.9964   -1.0568    1.8502 H   0  0  0  0  0  0  0  0  0  0  0  0
   -1.9057    1.1842    0.8823 H   0  0  0  0  0  0  0  0  0  0  0  0
   -1.6576    0.5374   -0.7769 H   0  0  0  0  0  0  0  0  0  0  0  0
    0.4487   -0.4504    0.9811 H   0  0  0  0  0  0  0  0  0  0  0  0
    2.4864    3.4237    0.9338 H   0  0  0  0  0  0  0  0  0  0  0  0
    7.0174    0.3961    0.0078 H   0  0  0  0  0  0  0  0  0  0  0  0
    7.1006    2.0598    0.6472 H   0  0  0  0  0  0  0  0  0  0  0  0
    4.9027   -0.6530   -0.5181 H   0  0  0  0  0  0  0  0  0  0  0  0
    3.3362   -2.5449   -0.4165 H   0  0  0  0  0  0  0  0  0  0  0  0
    1.9654   -2.7152   -1.5753 H   0  0  0  0  0  0  0  0  0  0  0  0
    3.4593   -1.8505   -2.0964 H   0  0  0  0  0  0  0  0  0  0  0  0
  1  2  1  0
  2  3  1  0
  3  4  1  0
  4  5  1  0
  3  6  1  0
  6  7  1  0
  7  8  1  0
  8  9  1  0
  9 10  2  0
  9 11  1  0
 11 12  2  0
 12 13  1  0
 13 14  1  0
 13 15  2  0
 15 16  1  0
 15 17  1  0
 17 18  2  0
 18 19  1  0
 19 20  1  0
 18 11  1  0
  1 21  1  0
  1 22  1  0
  1 23  1  0
  2 24  1  0
  2 25  1  0
  4 26  1  0
  4 27  1  0
  5 28  1  0
  5 29  1  0
  5 30  1  0
  6 31  1  0
  6 32  1  0
  7 33  1  0
  7 34  1  0
  8 35  1  0
 12 36  1  0
 16 37  1  0
 16 38  1  0
 17 39  1  0
 20 40  1  0
 20 41  1  0
 20 42  1  0
M  END
$$$$
