
     RDKit          3D

 34 36  0  0  0  0  0  0  0  0999 V2000
   -6.3804   -0.4045   -1.3609 S   0  0  0  0  0  0  0  0  0  0  0  0
   -5.1773    0.0578   -0.0777 C   0  0  0  0  0  0  0  0  0  0  0  0
   -3.8090   -0.5473   -0.3990 C   0  0  0  0  0  0  0  0  0  0  0  0
   -2.7545   -0.1452    0.6045 C   0  0  0  0  0  0  0  0  0  0  0  0
   -3.0955    0.0778    1.7991 O   0  0  0  0  0  0  0  0  0  0  0  0
   -1.3604   -0.0534    0.2381 N   0  0  0  0  0  0  0  0  0  0  0  0
   -0.8591   -0.7224   -0.9842 C   0  0  0  0  0  0  0  0  0  0  0  0
    0.5530   -1.2932   -0.7821 C   0  0  0  0  0  0  0  0  0  0  0  0
    1.4149   -0.2649   -0.1354 C   0  0  0  0  0  0  0  0  0  0  0  0
    0.9296    0.7369    0.6779 C   0  0  0  0  0  0  0  0  0  0  0  0
   -0.5281    0.9429    0.9471 C   0  0  0  0  0  0  0  0  0  0  0  0
    1.9371    1.4666    1.2089 N   0  0  0  0  0  0  0  0  0  0  0  0
    3.0676    0.9055    0.7369 C   0  0  0  0  0  0  0  0  0  0  0  0
    2.7875   -0.1635   -0.0821 C   0  0  0  0  0  0  0  0  0  0  0  0
    3.7947   -0.9280   -0.6681 C   0  0  0  0  0  0  0  0  0  0  0  0
    5.1281   -0.5651   -0.4036 C   0  0  0  0  0  0  0  0  0  0  0  0
    5.4192    0.5354    0.4340 C   0  0  0  0  0  0  0  0  0  0  0  0
    4.3797    1.2837    1.0176 C   0  0  0  0  0  0  0  0  0  0  0  0
   -7.4214    0.3040   -0.7313 H   0  0  0  0  0  0  0  0  0  0  0  0
   -5.1025    1.1659   -0.0383 H   0  0  0  0  0  0  0  0  0  0  0  0
   -5.5427   -0.3184    0.9020 H   0  0  0  0  0  0  0  0  0  0  0  0
   -3.8882   -1.6555   -0.4110 H   0  0  0  0  0  0  0  0  0  0  0  0
   -3.5068   -0.1997   -1.4103 H   0  0  0  0  0  0  0  0  0  0  0  0
   -1.5189   -1.5673   -1.2749 H   0  0  0  0  0  0  0  0  0  0  0  0
   -0.8473    0.0116   -1.8191 H   0  0  0  0  0  0  0  0  0  0  0  0
    0.5042   -2.1866   -0.1236 H   0  0  0  0  0  0  0  0  0  0  0  0
    0.9817   -1.5899   -1.7630 H   0  0  0  0  0  0  0  0  0  0  0  0
   -0.8202    1.9648    0.6248 H   0  0  0  0  0  0  0  0  0  0  0  0
   -0.6826    0.8553    2.0437 H   0  0  0  0  0  0  0  0  0  0  0  0
    1.8552    2.2769    1.8627 H   0  0  0  0  0  0  0  0  0  0  0  0
    3.5627   -1.7716   -1.3051 H   0  0  0  0  0  0  0  0  0  0  0  0
    5.9366   -1.1344   -0.8433 H   0  0  0  0  0  0  0  0  0  0  0  0
    6.4491    0.8027    0.6313 H   0  0  0  0  0  0  0  0  0  0  0  0
    4.5938    2.1230    1.6665 H   0  0  0  0  0  0  0  0  0  0  0  0
  1  2  1  0
  2  3  1  0
  3  4  1  0
  4  5  2  0
  4  6  1  0
  6  7  1  0
  7  8  1  0
  8  9  1  0
  9 10  2  0
 10 11  1  0
 10 12  1  0
 12 13  1  0
 13 14  2  0
 14 15  1  0
 15 16  2  0
 16 17  1  0
 17 18  2  0
 11  6  1  0
 18 13  1  0
 14  9  1  0
  1 19  1  0
  2 20  1  0
  2 21  1  0
  3 22  1  0
  3 23  1  0
  7 24  1  0
  7 25  1  0
  8 26  1  0
  8 27  1  0
 11 28  1  0
 11 29  1  0
 12 30  1  0
 15 31  1  0
 16 32  1  0
 17 33  1  0
 18 34  1  0
M  END
$$$$
