
     RDKit          3D

 31 33  0  0  0  0  0  0  0  0999 V2000
   -3.1344    2.5478   -0.7282 C   0  0  0  0  0  0  0  0  0  0  0  0
   -2.8772    1.0883   -0.5301 C   0  0  0  0  0  0  0  0  0  0  0  0
   -3.9290    0.2328   -0.3574 N   0  0  0  0  0  0  0  0  0  0  0  0
   -3.6783   -1.0898   -0.2080 C   0  0  0  0  0  0  0  0  0  0  0  0
   -4.6024   -2.0486   -0.0326 N   0  0  0  0  0  0  0  0  0  0  0  0
   -3.8141   -3.1536    0.0550 C   0  0  0  0  0  0  0  0  0  0  0  0
   -2.4914   -2.8785   -0.0606 N   0  0  0  0  0  0  0  0  0  0  0  0
   -2.4368   -1.5724   -0.2269 N   0  0  0  0  0  0  0  0  0  0  0  0
   -1.3393   -0.7896   -0.3816 C   0  0  0  0  0  0  0  0  0  0  0  0
   -0.0260   -1.3729   -0.4310 N   0  0  0  0  0  0  0  0  0  0  0  0
    1.1773   -0.6972   -0.0280 C   0  0  0  0  0  0  0  0  0  0  0  0
    1.1755    0.2321    1.0260 C   0  0  0  0  0  0  0  0  0  0  0  0
    2.3620    0.8580    1.4189 C   0  0  0  0  0  0  0  0  0  0  0  0
    3.5775    0.5414    0.7886 C   0  0  0  0  0  0  0  0  0  0  0  0
    3.5757   -0.3864   -0.2670 C   0  0  0  0  0  0  0  0  0  0  0  0
    2.3885   -1.0118   -0.6587 C   0  0  0  0  0  0  0  0  0  0  0  0
    4.8486    1.2534    1.1784 C   0  0  0  0  0  0  0  0  0  0  0  0
    4.8266    1.5938    2.5199 F   0  0  0  0  0  0  0  0  0  0  0  0
    4.9748    2.4045    0.4236 F   0  0  0  0  0  0  0  0  0  0  0  0
    5.9500    0.4451    0.9557 F   0  0  0  0  0  0  0  0  0  0  0  0
   -1.5539    0.5914   -0.5606 C   0  0  0  0  0  0  0  0  0  0  0  0
   -4.1976    2.7884   -0.5152 H   0  0  0  0  0  0  0  0  0  0  0  0
   -2.9061    2.8266   -1.7782 H   0  0  0  0  0  0  0  0  0  0  0  0
   -2.4929    3.1420   -0.0436 H   0  0  0  0  0  0  0  0  0  0  0  0
   -4.2033   -4.1519    0.2029 H   0  0  0  0  0  0  0  0  0  0  0  0
    0.0595   -2.3484   -0.7961 H   0  0  0  0  0  0  0  0  0  0  0  0
    0.2597    0.4660    1.5532 H   0  0  0  0  0  0  0  0  0  0  0  0
    2.3296    1.5862    2.2196 H   0  0  0  0  0  0  0  0  0  0  0  0
    4.4924   -0.6284   -0.7901 H   0  0  0  0  0  0  0  0  0  0  0  0
    2.4091   -1.7324   -1.4667 H   0  0  0  0  0  0  0  0  0  0  0  0
   -0.7242    1.2642   -0.7374 H   0  0  0  0  0  0  0  0  0  0  0  0
  1  2  1  0
  2  3  2  0
  3  4  1  0
  4  5  2  0
  5  6  1  0
  6  7  2  0
  7  8  1  0
  8  9  1  0
  9 10  1  0
 10 11  1  0
 11 12  2  0
 12 13  1  0
 13 14  2  0
 14 15  1  0
 15 16  2  0
 14 17  1  0
 17 18  1  0
 17 19  1  0
 17 20  1  0
  9 21  2  0
 21  2  1  0
  8  4  1  0
 16 11  1  0
  1 22  1  0
  1 23  1  0
  1 24  1  0
  6 25  1  0
 10 26  1  0
 12 27  1  0
 13 28  1  0
 15 29  1  0
 16 30  1  0
 21 31  1  0
M  END
$$$$
