
     RDKit          3D

 56 59  0  0  0  0  0  0  0  0999 V2000
    5.0604    0.2325    0.0649 C   0  0  2  0  0  0  0  0  0  0  0  0
    4.6792    0.2720   -1.4238 C   0  0  0  0  0  0  0  0  0  0  0  0
    3.2516   -0.1594   -1.6527 C   0  0  0  0  0  0  0  0  0  0  0  0
    2.9593   -1.4779   -2.0330 C   0  0  0  0  0  0  0  0  0  0  0  0
    1.6335   -1.8829   -2.2100 C   0  0  0  0  0  0  0  0  0  0  0  0
    0.5796   -0.9857   -2.0011 C   0  0  0  0  0  0  0  0  0  0  0  0
   -0.7319   -1.4507   -2.1905 O   0  0  0  0  0  0  0  0  0  0  0  0
   -1.9247   -0.7351   -1.8680 C   0  0  0  0  0  0  0  0  0  0  0  0
   -2.1446   -0.7065   -0.3505 C   0  0  0  0  0  0  0  0  0  0  0  0
   -3.5127   -0.2572   -0.0273 N   0  0  0  0  0  0  0  0  0  0  0  0
   -3.7943    1.1448    0.2363 C   0  0  0  0  0  0  0  0  0  0  0  0
   -5.0188    1.4971    0.8418 C   0  0  0  0  0  0  0  0  0  0  0  0
   -5.9692    0.5167    1.1267 O   0  0  0  0  0  0  0  0  0  0  0  0
   -5.7951   -0.8117    0.7382 C   0  0  0  0  0  0  0  0  0  0  0  0
   -4.5900   -1.2217    0.1307 C   0  0  0  0  0  0  0  0  0  0  0  0
   -4.4771   -2.5619   -0.3032 C   0  0  0  0  0  0  0  0  0  0  0  0
   -5.5250   -3.4647   -0.1000 C   0  0  0  0  0  0  0  0  0  0  0  0
   -6.6982   -3.0492    0.5300 C   0  0  0  0  0  0  0  0  0  0  0  0
   -6.8341   -1.7246    0.9460 C   0  0  0  0  0  0  0  0  0  0  0  0
   -5.3023    2.8315    1.1505 C   0  0  0  0  0  0  0  0  0  0  0  0
   -4.3843    3.8344    0.8381 C   0  0  0  0  0  0  0  0  0  0  0  0
   -3.1820    3.5072    0.2108 C   0  0  0  0  0  0  0  0  0  0  0  0
   -2.8861    2.1751   -0.0926 C   0  0  0  0  0  0  0  0  0  0  0  0
    0.8728    0.3376   -1.6197 C   0  0  0  0  0  0  0  0  0  0  0  0
    2.1986    0.7434   -1.4423 C   0  0  0  0  0  0  0  0  0  0  0  0
    6.3649    0.7689    0.2065 O   0  0  0  0  0  0  0  0  0  0  0  0
    6.5326    1.3394    1.4887 C   0  0  0  0  0  0  0  0  0  0  0  0
    7.9822    1.7660    1.6594 C   0  0  0  0  0  0  0  0  0  0  0  0
    5.0333   -1.1833    0.5757 C   0  0  0  0  0  0  0  0  0  0  0  0
    3.9616   -1.6187    1.3488 O   0  0  0  0  0  0  0  0  0  0  0  0
    5.9607   -1.9839    0.2788 O   0  0  0  0  0  0  0  0  0  0  0  0
    4.3001    0.8365    0.6181 H   0  0  0  0  0  0  0  0  0  0  0  0
    5.3765   -0.3659   -2.0114 H   0  0  0  0  0  0  0  0  0  0  0  0
    4.8065    1.3107   -1.8007 H   0  0  0  0  0  0  0  0  0  0  0  0
    3.7571   -2.1938   -2.1875 H   0  0  0  0  0  0  0  0  0  0  0  0
    1.4226   -2.9034   -2.5038 H   0  0  0  0  0  0  0  0  0  0  0  0
   -1.8982    0.2885   -2.2956 H   0  0  0  0  0  0  0  0  0  0  0  0
   -2.7755   -1.2603   -2.3493 H   0  0  0  0  0  0  0  0  0  0  0  0
   -1.3910   -0.0589    0.1418 H   0  0  0  0  0  0  0  0  0  0  0  0
   -1.9550   -1.7123    0.0796 H   0  0  0  0  0  0  0  0  0  0  0  0
   -3.5942   -2.9241   -0.8087 H   0  0  0  0  0  0  0  0  0  0  0  0
   -5.4268   -4.4898   -0.4336 H   0  0  0  0  0  0  0  0  0  0  0  0
   -7.5066   -3.7516    0.6869 H   0  0  0  0  0  0  0  0  0  0  0  0
   -7.7523   -1.4021    1.4203 H   0  0  0  0  0  0  0  0  0  0  0  0
   -6.2414    3.0910    1.6225 H   0  0  0  0  0  0  0  0  0  0  0  0
   -4.6093    4.8668    1.0728 H   0  0  0  0  0  0  0  0  0  0  0  0
   -2.4768    4.2883   -0.0429 H   0  0  0  0  0  0  0  0  0  0  0  0
   -1.9527    1.9709   -0.5915 H   0  0  0  0  0  0  0  0  0  0  0  0
    0.0899    1.0628   -1.4616 H   0  0  0  0  0  0  0  0  0  0  0  0
    2.4054    1.7626   -1.1396 H   0  0  0  0  0  0  0  0  0  0  0  0
    6.2877    0.6067    2.2914 H   0  0  0  0  0  0  0  0  0  0  0  0
    5.8874    2.2401    1.5985 H   0  0  0  0  0  0  0  0  0  0  0  0
    8.2527    2.5127    0.8830 H   0  0  0  0  0  0  0  0  0  0  0  0
    8.6507    0.8839    1.5658 H   0  0  0  0  0  0  0  0  0  0  0  0
    8.1243    2.2212    2.6623 H   0  0  0  0  0  0  0  0  0  0  0  0
    3.9187   -2.5726    1.6867 H   0  0  0  0  0  0  0  0  0  0  0  0
  1  2  1  0
  2  3  1  0
  3  4  2  0
  4  5  1  0
  5  6  2  0
  6  7  1  0
  7  8  1  0
  8  9  1  0
  9 10  1  0
 10 11  1  0
 11 12  2  0
 12 13  1  0
 13 14  1  0
 14 15  2  0
 15 16  1  0
 16 17  2  0
 17 18  1  0
 18 19  2  0
 12 20  1  0
 20 21  2  0
 21 22  1  0
 22 23  2  0
  6 24  1  0
 24 25  2  0
  1 26  1  0
 26 27  1  0
 27 28  1  0
  1 29  1  0
 29 30  1  0
 29 31  2  0
 25  3  1  0
 15 10  1  0
 23 11  1  0
 19 14  1  0
  1 32  1  1
  2 33  1  0
  2 34  1  0
  4 35  1  0
  5 36  1  0
  8 37  1  0
  8 38  1  0
  9 39  1  0
  9 40  1  0
 16 41  1  0
 17 42  1  0
 18 43  1  0
 19 44  1  0
 20 45  1  0
 21 46  1  0
 22 47  1  0
 23 48  1  0
 24 49  1  0
 25 50  1  0
 27 51  1  0
 27 52  1  0
 28 53  1  0
 28 54  1  0
 28 55  1  0
 30 56  1  0
M  END
$$$$
