
     RDKit          3D

 52 55  0  0  0  0  0  0  0  0999 V2000
   -6.5735   -3.5719   -0.5251 N   0  0  0  0  0  0  0  0  0  0  0  0
   -5.7210   -2.5046   -0.1174 C   0  0  0  0  0  0  0  0  0  0  0  0
   -6.2530   -1.3706    0.3980 N   0  0  0  0  0  0  0  0  0  0  0  0
   -5.4654   -0.3343    0.7821 C   0  0  0  0  0  0  0  0  0  0  0  0
   -4.0552   -0.4163    0.6455 C   0  0  0  0  0  0  0  0  0  0  0  0
   -3.5252   -1.6413    0.1547 C   0  0  0  0  0  0  0  0  0  0  0  0
   -2.1208   -1.9114    0.0926 N   0  0  0  0  0  0  0  0  0  0  0  0
   -4.3758   -2.6310   -0.2263 N   0  0  0  0  0  0  0  0  0  0  0  0
   -3.2692    0.7260    0.9603 C   0  0  0  0  0  0  0  0  0  0  0  0
   -1.8888    0.7210    0.7109 O   0  0  0  0  0  0  0  0  0  0  0  0
   -0.9999    1.8072    0.9624 C   0  0  0  0  0  0  0  0  0  0  0  0
    0.4298    1.4046    0.5718 C   0  0  0  0  0  0  0  0  0  0  0  0
    0.5345    1.1131   -0.9330 C   0  0  0  0  0  0  0  0  0  0  0  0
    1.9551    0.6416   -1.3061 C   0  0  0  0  0  0  0  0  0  0  0  0
    3.0431    1.3209   -0.5516 N   0  0  0  0  0  0  0  0  0  0  0  0
    3.6879    0.4500    0.4558 C   0  0  0  0  0  0  0  0  0  0  0  0
    4.5720   -0.5737   -0.2208 C   0  0  0  0  0  0  0  0  0  0  0  0
    4.2957   -1.9634   -0.1875 C   0  0  0  0  0  0  0  0  0  0  0  0
    2.8879   -2.6007    0.6697 Cl  0  0  0  0  0  0  0  0  0  0  0  0
    5.1566   -2.8592   -0.8516 C   0  0  0  0  0  0  0  0  0  0  0  0
    4.8584   -4.5935   -0.8432 Cl  0  0  0  0  0  0  0  0  0  0  0  0
    6.2758   -2.3791   -1.5382 C   0  0  0  0  0  0  0  0  0  0  0  0
    6.5475   -1.0125   -1.5710 C   0  0  0  0  0  0  0  0  0  0  0  0
    5.7026   -0.1154   -0.9180 C   0  0  0  0  0  0  0  0  0  0  0  0
    2.6319    2.6211    0.0161 C   0  0  0  0  0  0  0  0  0  0  0  0
    1.4481    2.4906    0.9956 C   0  0  0  0  0  0  0  0  0  0  0  0
   -3.8998    1.8715    1.4884 C   0  0  0  0  0  0  0  0  0  0  0  0
   -5.2821    1.9098    1.6614 C   0  0  0  0  0  0  0  0  0  0  0  0
   -6.0636    0.8179    1.2971 C   0  0  0  0  0  0  0  0  0  0  0  0
   -6.1692   -4.4515   -0.9164 H   0  0  0  0  0  0  0  0  0  0  0  0
   -7.6102   -3.4836   -0.4369 H   0  0  0  0  0  0  0  0  0  0  0  0
   -1.7775   -2.6936   -0.5080 H   0  0  0  0  0  0  0  0  0  0  0  0
   -1.4646   -1.5640    0.8244 H   0  0  0  0  0  0  0  0  0  0  0  0
   -1.0252    2.0556    2.0462 H   0  0  0  0  0  0  0  0  0  0  0  0
   -1.3172    2.6966    0.3745 H   0  0  0  0  0  0  0  0  0  0  0  0
    0.6662    0.4649    1.1188 H   0  0  0  0  0  0  0  0  0  0  0  0
    0.2859    2.0322   -1.5088 H   0  0  0  0  0  0  0  0  0  0  0  0
   -0.1937    0.3260   -1.2273 H   0  0  0  0  0  0  0  0  0  0  0  0
    2.1120    0.8305   -2.3892 H   0  0  0  0  0  0  0  0  0  0  0  0
    2.0016   -0.4618   -1.1806 H   0  0  0  0  0  0  0  0  0  0  0  0
    2.9314   -0.0144    1.1177 H   0  0  0  0  0  0  0  0  0  0  0  0
    4.3430    1.0519    1.1244 H   0  0  0  0  0  0  0  0  0  0  0  0
    6.9376   -3.0671   -2.0489 H   0  0  0  0  0  0  0  0  0  0  0  0
    7.4151   -0.6468   -2.1050 H   0  0  0  0  0  0  0  0  0  0  0  0
    5.9283    0.9436   -0.9566 H   0  0  0  0  0  0  0  0  0  0  0  0
    2.3417    3.2983   -0.8175 H   0  0  0  0  0  0  0  0  0  0  0  0
    3.4893    3.1145    0.5242 H   0  0  0  0  0  0  0  0  0  0  0  0
    1.8356    2.2448    2.0085 H   0  0  0  0  0  0  0  0  0  0  0  0
    0.9579    3.4867    1.0687 H   0  0  0  0  0  0  0  0  0  0  0  0
   -3.3299    2.7507    1.7545 H   0  0  0  0  0  0  0  0  0  0  0  0
   -5.7518    2.7995    2.0608 H   0  0  0  0  0  0  0  0  0  0  0  0
   -7.1396    0.8706    1.4108 H   0  0  0  0  0  0  0  0  0  0  0  0
  1  2  1  0
  2  3  2  0
  3  4  1  0
  4  5  2  0
  5  6  1  0
  6  7  1  0
  6  8  2  0
  5  9  1  0
  9 10  1  0
 10 11  1  0
 11 12  1  0
 12 13  1  0
 13 14  1  0
 14 15  1  0
 15 16  1  0
 16 17  1  0
 17 18  2  0
 18 19  1  0
 18 20  1  0
 20 21  1  0
 20 22  2  0
 22 23  1  0
 23 24  2  0
 15 25  1  0
 25 26  1  0
  9 27  2  0
 27 28  1  0
 28 29  2  0
  8  2  1  0
 26 12  1  0
 29  4  1  0
 24 17  1  0
  1 30  1  0
  1 31  1  0
  7 32  1  0
  7 33  1  0
 11 34  1  0
 11 35  1  0
 12 36  1  0
 13 37  1  0
 13 38  1  0
 14 39  1  0
 14 40  1  0
 16 41  1  0
 16 42  1  0
 22 43  1  0
 23 44  1  0
 24 45  1  0
 25 46  1  0
 25 47  1  0
 26 48  1  0
 26 49  1  0
 27 50  1  0
 28 51  1  0
 29 52  1  0
M  END
$$$$
