
     RDKit          3D

 46 49  0  0  0  0  0  0  0  0999 V2000
    6.0564   -0.4508    2.4342 C   0  0  0  0  0  0  0  0  0  0  0  0
    4.8223   -1.0688    1.7837 C   0  0  0  0  0  0  0  0  0  0  0  0
    3.7053   -1.1365    2.7531 N   0  0  0  0  0  0  0  0  0  0  0  0
    2.9337    0.1207    2.8562 C   0  0  0  0  0  0  0  0  0  0  0  0
    2.0275    0.3771    1.6396 C   0  0  0  0  0  0  0  0  0  0  0  0
    1.2608   -0.8242    1.2792 N   0  0  0  0  0  0  0  0  0  0  0  0
    1.9694   -2.1105    1.2510 C   0  0  0  0  0  0  0  0  0  0  0  0
    2.8106   -2.2857    2.5188 C   0  0  0  0  0  0  0  0  0  0  0  0
   -0.0110   -0.6875    0.6063 C   0  0  0  0  0  0  0  0  0  0  0  0
   -0.6572   -1.7918    0.1231 N   0  0  0  0  0  0  0  0  0  0  0  0
   -1.8478   -1.6214   -0.4962 C   0  0  0  0  0  0  0  0  0  0  0  0
   -2.6951   -2.5703   -1.0070 C   0  0  0  0  0  0  0  0  0  0  0  0
   -3.7902   -1.8395   -1.4535 C   0  0  0  0  0  0  0  0  0  0  0  0
   -3.5875   -0.5201   -1.2121 N   0  0  0  0  0  0  0  0  0  0  0  0
   -2.3971   -0.4155   -0.6418 N   0  0  0  0  0  0  0  0  0  0  0  0
   -1.7751    0.7005   -0.1854 C   0  0  0  0  0  0  0  0  0  0  0  0
   -2.3629    2.0034   -0.3076 N   0  0  0  0  0  0  0  0  0  0  0  0
   -3.0597    2.4670   -1.4761 C   0  0  0  0  0  0  0  0  0  0  0  0
   -4.0180    3.4845   -1.3494 C   0  0  0  0  0  0  0  0  0  0  0  0
   -4.6900    3.9674   -2.4766 C   0  0  0  0  0  0  0  0  0  0  0  0
   -4.3996    3.4483   -3.7410 C   0  0  0  0  0  0  0  0  0  0  0  0
   -3.4315    2.4505   -3.8808 C   0  0  0  0  0  0  0  0  0  0  0  0
   -2.7572    1.9653   -2.7561 C   0  0  0  0  0  0  0  0  0  0  0  0
   -0.5825    0.5500    0.4551 N   0  0  0  0  0  0  0  0  0  0  0  0
   -2.5167   -3.9961   -1.0366 C   0  0  0  0  0  0  0  0  0  0  0  0
   -2.3727   -5.1440   -1.0603 N   0  0  0  0  0  0  0  0  0  0  0  0
    6.3204   -1.0092    3.3573 H   0  0  0  0  0  0  0  0  0  0  0  0
    6.9132   -0.5014    1.7295 H   0  0  0  0  0  0  0  0  0  0  0  0
    5.8780    0.6139    2.6892 H   0  0  0  0  0  0  0  0  0  0  0  0
    4.5515   -0.4898    0.8762 H   0  0  0  0  0  0  0  0  0  0  0  0
    5.1120   -2.0882    1.4441 H   0  0  0  0  0  0  0  0  0  0  0  0
    2.2985    0.0747    3.7681 H   0  0  0  0  0  0  0  0  0  0  0  0
    3.6133    0.9876    2.9957 H   0  0  0  0  0  0  0  0  0  0  0  0
    1.3457    1.2131    1.9060 H   0  0  0  0  0  0  0  0  0  0  0  0
    2.6284    0.7055    0.7661 H   0  0  0  0  0  0  0  0  0  0  0  0
    2.6191   -2.1541    0.3508 H   0  0  0  0  0  0  0  0  0  0  0  0
    1.2554   -2.9601    1.2018 H   0  0  0  0  0  0  0  0  0  0  0  0
    2.1293   -2.4003    3.3908 H   0  0  0  0  0  0  0  0  0  0  0  0
    3.3964   -3.2287    2.4544 H   0  0  0  0  0  0  0  0  0  0  0  0
   -4.6830   -2.2426   -1.9130 H   0  0  0  0  0  0  0  0  0  0  0  0
   -2.2153    2.6755    0.4790 H   0  0  0  0  0  0  0  0  0  0  0  0
   -4.2497    3.8959   -0.3750 H   0  0  0  0  0  0  0  0  0  0  0  0
   -5.4345    4.7458   -2.3700 H   0  0  0  0  0  0  0  0  0  0  0  0
   -4.9196    3.8238   -4.6128 H   0  0  0  0  0  0  0  0  0  0  0  0
   -3.1986    2.0574   -4.8620 H   0  0  0  0  0  0  0  0  0  0  0  0
   -1.9941    1.2089   -2.8868 H   0  0  0  0  0  0  0  0  0  0  0  0
  1  2  1  0
  2  3  1  0
  3  4  1  0
  4  5  1  0
  5  6  1  0
  6  7  1  0
  7  8  1  0
  6  9  1  0
  9 10  2  0
 10 11  1  0
 11 12  2  0
 12 13  1  0
 13 14  2  0
 14 15  1  0
 15 16  1  0
 16 17  1  0
 17 18  1  0
 18 19  2  0
 19 20  1  0
 20 21  2  0
 21 22  1  0
 22 23  2  0
 16 24  2  0
 12 25  1  0
 25 26  3  0
  8  3  1  0
 24  9  1  0
 15 11  1  0
 23 18  1  0
  1 27  1  0
  1 28  1  0
  1 29  1  0
  2 30  1  0
  2 31  1  0
  4 32  1  0
  4 33  1  0
  5 34  1  0
  5 35  1  0
  7 36  1  0
  7 37  1  0
  8 38  1  0
  8 39  1  0
 13 40  1  0
 17 41  1  0
 19 42  1  0
 20 43  1  0
 21 44  1  0
 22 45  1  0
 23 46  1  0
M  END
$$$$
