
     RDKit          3D

 48 50  0  0  0  0  0  0  0  0999 V2000
   -0.7995   -1.1109   -0.0642 C   0  0  1  0  0  0  0  0  0  0  0  0
    0.4502   -1.3340   -0.9242 C   0  0  0  0  0  0  0  0  0  0  0  0
    1.5792   -0.6474   -0.3106 N   0  0  0  0  0  0  0  0  0  0  0  0
    1.4976    0.8093   -0.2115 C   0  0  0  0  0  0  0  0  0  0  0  0
    0.1527    1.2534    0.3401 C   0  0  0  0  0  0  0  0  0  0  0  0
   -0.9333    0.3373    0.4028 C   0  0  0  0  0  0  0  0  0  0  0  0
   -2.1288    0.7369    1.0183 C   0  0  0  0  0  0  0  0  0  0  0  0
   -2.2863    2.0282    1.5047 C   0  0  0  0  0  0  0  0  0  0  0  0
   -1.2519    2.9648    1.4009 C   0  0  0  0  0  0  0  0  0  0  0  0
   -1.4797    4.3501    1.9520 C   0  0  0  0  0  0  0  0  0  0  0  0
   -0.0320    2.5967    0.7766 C   0  0  0  0  0  0  0  0  0  0  0  0
    1.0921    3.6061    0.6497 C   0  0  0  0  0  0  0  0  0  0  0  0
    2.5718   -1.3838    0.4241 C   0  0  0  0  0  0  0  0  0  0  0  0
    2.2064   -2.3252    1.1804 O   0  0  0  0  0  0  0  0  0  0  0  0
    3.9732   -1.0743    0.2935 N   0  0  0  0  0  0  0  0  0  0  0  0
    4.4690   -0.3829   -0.9007 C   0  0  0  0  0  0  0  0  0  0  0  0
    4.9123   -1.5625    1.3067 C   0  0  0  0  0  0  0  0  0  0  0  0
   -2.0238   -1.5881   -0.8261 C   0  0  0  0  0  0  0  0  0  0  0  0
   -2.6536   -2.7931   -0.4676 C   0  0  0  0  0  0  0  0  0  0  0  0
   -3.7752   -3.2466   -1.1767 C   0  0  0  0  0  0  0  0  0  0  0  0
   -4.4057   -4.4370   -0.8217 O   0  0  0  0  0  0  0  0  0  0  0  0
   -4.2675   -2.5000   -2.2514 C   0  0  0  0  0  0  0  0  0  0  0  0
   -3.6426   -1.3070   -2.6216 C   0  0  0  0  0  0  0  0  0  0  0  0
   -2.5246   -0.8531   -1.9174 C   0  0  0  0  0  0  0  0  0  0  0  0
   -0.6761   -1.7225    0.8576 H   0  0  0  0  0  0  0  0  0  0  0  0
    0.6563   -2.4229   -1.0260 H   0  0  0  0  0  0  0  0  0  0  0  0
    0.2998   -0.9255   -1.9480 H   0  0  0  0  0  0  0  0  0  0  0  0
    2.3054    1.1860    0.4528 H   0  0  0  0  0  0  0  0  0  0  0  0
    1.6358    1.2440   -1.2244 H   0  0  0  0  0  0  0  0  0  0  0  0
   -2.9491    0.0387    1.1308 H   0  0  0  0  0  0  0  0  0  0  0  0
   -3.2264    2.2957    1.9719 H   0  0  0  0  0  0  0  0  0  0  0  0
   -2.4015    4.4000    2.5703 H   0  0  0  0  0  0  0  0  0  0  0  0
   -1.5851    5.0728    1.1159 H   0  0  0  0  0  0  0  0  0  0  0  0
   -0.6297    4.6494    2.6007 H   0  0  0  0  0  0  0  0  0  0  0  0
    1.7541    3.5370    1.5379 H   0  0  0  0  0  0  0  0  0  0  0  0
    1.6910    3.4352   -0.2676 H   0  0  0  0  0  0  0  0  0  0  0  0
    0.7114    4.6433    0.5617 H   0  0  0  0  0  0  0  0  0  0  0  0
    5.5704   -0.4832   -0.9988 H   0  0  0  0  0  0  0  0  0  0  0  0
    4.2256    0.6971   -0.8463 H   0  0  0  0  0  0  0  0  0  0  0  0
    4.0075   -0.8209   -1.8112 H   0  0  0  0  0  0  0  0  0  0  0  0
    4.9131   -2.6729    1.3152 H   0  0  0  0  0  0  0  0  0  0  0  0
    5.9465   -1.2099    1.1090 H   0  0  0  0  0  0  0  0  0  0  0  0
    4.6082   -1.1890    2.3074 H   0  0  0  0  0  0  0  0  0  0  0  0
   -2.2756   -3.3795    0.3608 H   0  0  0  0  0  0  0  0  0  0  0  0
   -4.0743   -5.0018   -0.0483 H   0  0  0  0  0  0  0  0  0  0  0  0
   -5.1332   -2.8465   -2.8015 H   0  0  0  0  0  0  0  0  0  0  0  0
   -4.0244   -0.7338   -3.4566 H   0  0  0  0  0  0  0  0  0  0  0  0
   -2.0500    0.0725   -2.2190 H   0  0  0  0  0  0  0  0  0  0  0  0
  1  2  1  0
  2  3  1  0
  3  4  1  0
  4  5  1  0
  5  6  2  0
  6  7  1  0
  7  8  2  0
  8  9  1  0
  9 10  1  0
  9 11  2  0
 11 12  1  0
  3 13  1  0
 13 14  2  0
 13 15  1  0
 15 16  1  0
 15 17  1  0
  1 18  1  0
 18 19  2  0
 19 20  1  0
 20 21  1  0
 20 22  2  0
 22 23  1  0
 23 24  2  0
  6  1  1  0
 24 18  1  0
 11  5  1  0
  1 25  1  1
  2 26  1  0
  2 27  1  0
  4 28  1  0
  4 29  1  0
  7 30  1  0
  8 31  1  0
 10 32  1  0
 10 33  1  0
 10 34  1  0
 12 35  1  0
 12 36  1  0
 12 37  1  0
 16 38  1  0
 16 39  1  0
 16 40  1  0
 17 41  1  0
 17 42  1  0
 17 43  1  0
 19 44  1  0
 21 45  1  0
 22 46  1  0
 23 47  1  0
 24 48  1  0
M  END
$$$$
