
     RDKit          3D

 34 37  0  0  0  0  0  0  0  0999 V2000
    3.8749    0.2314    1.1038 C   0  0  0  0  0  0  0  0  0  0  0  0
    2.8193   -0.5227    0.3414 C   0  0  0  0  0  0  0  0  0  0  0  0
    1.4520   -0.1747    0.4408 C   0  0  0  0  0  0  0  0  0  0  0  0
    1.0257    0.8363    1.3694 N   0  0  0  0  0  0  0  0  0  0  0  0
    0.0629    1.8658    1.0943 C   0  0  0  0  0  0  0  0  0  0  0  0
   -0.0310    2.8238    1.9091 O   0  0  0  0  0  0  0  0  0  0  0  0
   -0.8112    1.8691   -0.1046 C   0  0  0  0  0  0  0  0  0  0  0  0
   -1.3003    0.6823   -0.6896 C   0  0  0  0  0  0  0  0  0  0  0  0
   -2.1923    0.7544   -1.7180 N   0  0  0  0  0  0  0  0  0  0  0  0
   -2.6274    1.9377   -2.2207 C   0  0  0  0  0  0  0  0  0  0  0  0
   -2.1643    3.1340   -1.6809 C   0  0  0  0  0  0  0  0  0  0  0  0
   -1.2630    3.0982   -0.6180 C   0  0  0  0  0  0  0  0  0  0  0  0
   -0.8836   -0.6056   -0.2208 N   0  0  0  0  0  0  0  0  0  0  0  0
   -1.8561   -1.6997   -0.1995 C   0  0  0  0  0  0  0  0  0  0  0  0
   -1.8316   -2.5124    1.0849 C   0  0  0  0  0  0  0  0  0  0  0  0
   -2.9546   -1.5188    0.8354 C   0  0  0  0  0  0  0  0  0  0  0  0
    0.5101   -0.9233   -0.2860 C   0  0  0  0  0  0  0  0  0  0  0  0
    0.9197   -1.9732   -1.0500 N   0  0  0  0  0  0  0  0  0  0  0  0
    2.2249   -2.3270   -1.1511 C   0  0  0  0  0  0  0  0  0  0  0  0
    3.1971   -1.6092   -0.4598 C   0  0  0  0  0  0  0  0  0  0  0  0
    3.7002    1.3251    1.0218 H   0  0  0  0  0  0  0  0  0  0  0  0
    3.8474   -0.0679    2.1724 H   0  0  0  0  0  0  0  0  0  0  0  0
    4.8901    0.0223    0.7039 H   0  0  0  0  0  0  0  0  0  0  0  0
    1.5589    0.9291    2.2633 H   0  0  0  0  0  0  0  0  0  0  0  0
   -3.3338    1.9478   -3.0400 H   0  0  0  0  0  0  0  0  0  0  0  0
   -2.5085    4.0814   -2.0752 H   0  0  0  0  0  0  0  0  0  0  0  0
   -0.9204    4.0339   -0.1934 H   0  0  0  0  0  0  0  0  0  0  0  0
   -2.1103   -2.2244   -1.1450 H   0  0  0  0  0  0  0  0  0  0  0  0
   -2.1305   -3.5743    0.9601 H   0  0  0  0  0  0  0  0  0  0  0  0
   -1.0977   -2.1811    1.8508 H   0  0  0  0  0  0  0  0  0  0  0  0
   -2.8875   -0.5975    1.4532 H   0  0  0  0  0  0  0  0  0  0  0  0
   -3.9226   -1.9887    0.5620 H   0  0  0  0  0  0  0  0  0  0  0  0
    2.5077   -3.1685   -1.7692 H   0  0  0  0  0  0  0  0  0  0  0  0
    4.2359   -1.9038   -0.5446 H   0  0  0  0  0  0  0  0  0  0  0  0
  1  2  1  0
  2  3  2  0
  3  4  1  0
  4  5  1  0
  5  6  2  0
  5  7  1  0
  7  8  2  0
  8  9  1  0
  9 10  2  0
 10 11  1  0
 11 12  2  0
  8 13  1  0
 13 14  1  0
 14 15  1  0
 15 16  1  0
 13 17  1  0
 17 18  2  0
 18 19  1  0
 19 20  2  0
 20  2  1  0
 17  3  1  0
 12  7  1  0
 16 14  1  0
  1 21  1  0
  1 22  1  0
  1 23  1  0
  4 24  1  0
 10 25  1  0
 11 26  1  0
 12 27  1  0
 14 28  1  0
 15 29  1  0
 15 30  1  0
 16 31  1  0
 16 32  1  0
 19 33  1  0
 20 34  1  0
M  END
$$$$
