
     RDKit          3D

 45 48  0  0  0  0  0  0  0  0999 V2000
    7.7837   -1.7492    0.7199 N   0  0  0  0  0  0  0  0  0  0  0  0
    7.0294   -0.5419    0.8156 C   0  0  0  0  0  0  0  0  0  0  0  0
    7.4754    0.4180    1.5002 O   0  0  0  0  0  0  0  0  0  0  0  0
    5.7736   -0.4251    0.1364 N   0  0  0  0  0  0  0  0  0  0  0  0
    4.9739    0.7967    0.2136 C   0  0  0  0  0  0  0  0  0  0  0  0
    3.7053    0.6504   -0.5826 C   0  0  0  0  0  0  0  0  0  0  0  0
    2.5623    0.0872    0.0072 C   0  0  0  0  0  0  0  0  0  0  0  0
    1.3848   -0.0808   -0.7398 C   0  0  0  0  0  0  0  0  0  0  0  0
    1.3689    0.2905   -2.0939 C   0  0  0  0  0  0  0  0  0  0  0  0
    2.5094    0.8365   -2.6876 C   0  0  0  0  0  0  0  0  0  0  0  0
    3.6751    1.0125   -1.9381 C   0  0  0  0  0  0  0  0  0  0  0  0
    0.1891   -0.6922   -0.1187 C   0  0  0  0  0  0  0  0  0  0  0  0
   -1.0615   -0.0270   -0.0899 C   0  0  0  0  0  0  0  0  0  0  0  0
   -1.1872    1.2906   -0.5408 O   0  0  0  0  0  0  0  0  0  0  0  0
   -2.1929   -0.6829    0.4470 C   0  0  0  0  0  0  0  0  0  0  0  0
   -2.0484   -1.9666    0.9982 C   0  0  0  0  0  0  0  0  0  0  0  0
   -0.8083   -2.6026    0.9999 C   0  0  0  0  0  0  0  0  0  0  0  0
    0.3025   -1.9736    0.4421 C   0  0  0  0  0  0  0  0  0  0  0  0
   -3.5285   -0.0390    0.4598 C   0  0  0  0  0  0  0  0  0  0  0  0
   -4.0476    0.7816   -0.5452 C   0  0  0  0  0  0  0  0  0  0  0  0
   -5.3129    1.1111   -0.1144 C   0  0  0  0  0  0  0  0  0  0  0  0
   -5.5156    0.5001    1.0900 C   0  0  0  0  0  0  0  0  0  0  0  0
   -4.4362   -0.2110    1.4538 N   0  0  0  0  0  0  0  0  0  0  0  0
   -6.7147    0.6404    1.7837 C   0  0  0  0  0  0  0  0  0  0  0  0
   -7.7095    1.4380    1.1892 C   0  0  0  0  0  0  0  0  0  0  0  0
   -7.4852    2.0395   -0.0221 N   0  0  0  0  0  0  0  0  0  0  0  0
   -6.3046    1.8947   -0.6943 C   0  0  0  0  0  0  0  0  0  0  0  0
    8.6997   -1.8395    1.2130 H   0  0  0  0  0  0  0  0  0  0  0  0
    7.4291   -2.5539    0.1573 H   0  0  0  0  0  0  0  0  0  0  0  0
    5.4320   -1.2397   -0.4236 H   0  0  0  0  0  0  0  0  0  0  0  0
    4.7289    1.0117    1.2767 H   0  0  0  0  0  0  0  0  0  0  0  0
    5.5685    1.6528   -0.1736 H   0  0  0  0  0  0  0  0  0  0  0  0
    2.5873   -0.2147    1.0480 H   0  0  0  0  0  0  0  0  0  0  0  0
    0.4761    0.1481   -2.6906 H   0  0  0  0  0  0  0  0  0  0  0  0
    2.4921    1.1169   -3.7328 H   0  0  0  0  0  0  0  0  0  0  0  0
    4.5549    1.4266   -2.4150 H   0  0  0  0  0  0  0  0  0  0  0  0
   -0.4006    1.8538   -0.8364 H   0  0  0  0  0  0  0  0  0  0  0  0
   -2.9010   -2.4883    1.4145 H   0  0  0  0  0  0  0  0  0  0  0  0
   -0.7110   -3.5943    1.4228 H   0  0  0  0  0  0  0  0  0  0  0  0
    1.2524   -2.4946    0.4324 H   0  0  0  0  0  0  0  0  0  0  0  0
   -3.5797    1.0746   -1.4757 H   0  0  0  0  0  0  0  0  0  0  0  0
   -4.3223   -0.7679    2.3301 H   0  0  0  0  0  0  0  0  0  0  0  0
   -6.8763    0.1561    2.7381 H   0  0  0  0  0  0  0  0  0  0  0  0
   -8.6585    1.5774    1.6892 H   0  0  0  0  0  0  0  0  0  0  0  0
   -6.1518    2.3789   -1.6498 H   0  0  0  0  0  0  0  0  0  0  0  0
  1  2  1  0
  2  3  2  0
  2  4  1  0
  4  5  1  0
  5  6  1  0
  6  7  2  0
  7  8  1  0
  8  9  2  0
  9 10  1  0
 10 11  2  0
  8 12  1  0
 12 13  2  0
 13 14  1  0
 13 15  1  0
 15 16  2  0
 16 17  1  0
 17 18  2  0
 15 19  1  0
 19 20  2  0
 20 21  1  0
 21 22  2  0
 22 23  1  0
 22 24  1  0
 24 25  2  0
 25 26  1  0
 26 27  2  0
 11  6  1  0
 18 12  1  0
 23 19  1  0
 27 21  1  0
  1 28  1  0
  1 29  1  0
  4 30  1  0
  5 31  1  0
  5 32  1  0
  7 33  1  0
  9 34  1  0
 10 35  1  0
 11 36  1  0
 14 37  1  0
 16 38  1  0
 17 39  1  0
 18 40  1  0
 20 41  1  0
 23 42  1  0
 24 43  1  0
 25 44  1  0
 27 45  1  0
M  END
$$$$
