
     RDKit          3D

 23 23  0  0  0  0  0  0  0  0999 V2000
   -2.1398    0.3738    0.1766 C   0  0  1  0  0  0  0  0  0  0  0  0
   -2.1110   -0.5708    1.2971 N   0  0  0  0  0  0  0  0  0  0  0  0
   -1.1561   -0.0362   -0.9418 C   0  0  0  0  0  0  0  0  0  0  0  0
    0.2750   -0.0045   -0.4693 C   0  0  0  0  0  0  0  0  0  0  0  0
    0.9256   -1.1893   -0.0867 C   0  0  0  0  0  0  0  0  0  0  0  0
    2.2451   -1.1518    0.3742 C   0  0  0  0  0  0  0  0  0  0  0  0
    2.9257    0.0702    0.4620 C   0  0  0  0  0  0  0  0  0  0  0  0
    4.2404    0.1198    0.9198 O   0  0  0  0  0  0  0  0  0  0  0  0
    2.2792    1.2528    0.0885 C   0  0  0  0  0  0  0  0  0  0  0  0
    0.9596    1.2180   -0.3724 C   0  0  0  0  0  0  0  0  0  0  0  0
   -3.5402    0.4580   -0.3657 C   0  0  0  0  0  0  0  0  0  0  0  0
   -3.8280    1.2977   -1.2040 O   0  0  0  0  0  0  0  0  0  0  0  0
   -1.8647    1.3839    0.5553 H   0  0  0  0  0  0  0  0  0  0  0  0
   -2.1803   -1.5499    0.9342 H   0  0  0  0  0  0  0  0  0  0  0  0
   -1.1974   -0.4802    1.7975 H   0  0  0  0  0  0  0  0  0  0  0  0
   -1.4156   -1.0491   -1.3225 H   0  0  0  0  0  0  0  0  0  0  0  0
   -1.2585    0.6625   -1.8014 H   0  0  0  0  0  0  0  0  0  0  0  0
    0.4104   -2.1404   -0.1413 H   0  0  0  0  0  0  0  0  0  0  0  0
    2.7363   -2.0716    0.6649 H   0  0  0  0  0  0  0  0  0  0  0  0
    4.7359   -0.7190    1.1984 H   0  0  0  0  0  0  0  0  0  0  0  0
    2.7992    2.1999    0.1576 H   0  0  0  0  0  0  0  0  0  0  0  0
    0.4703    2.1428   -0.6523 H   0  0  0  0  0  0  0  0  0  0  0  0
   -4.3110   -0.2167   -0.0057 H   0  0  0  0  0  0  0  0  0  0  0  0
  1  2  1  0
  1  3  1  0
  3  4  1  0
  4  5  2  0
  5  6  1  0
  6  7  2  0
  7  8  1  0
  7  9  1  0
  9 10  2  0
  1 11  1  0
 11 12  2  0
 10  4  1  0
  1 13  1  1
  2 14  1  0
  2 15  1  0
  3 16  1  0
  3 17  1  0
  5 18  1  0
  6 19  1  0
  8 20  1  0
  9 21  1  0
 10 22  1  0
 11 23  1  0
M  END
$$$$
