
     RDKit          3D

 69 71  0  0  0  0  0  0  0  0999 V2000
   -2.6469    6.8536    4.2028 C   0  0  0  0  0  0  0  0  0  0  0  0
   -3.2191    5.2037    3.6885 S   0  0  0  0  0  0  0  0  0  0  0  0
   -2.0182    5.0499    2.3237 C   0  0  0  0  0  0  0  0  0  0  0  0
   -2.2033    3.7079    1.6190 C   0  0  0  0  0  0  0  0  0  0  0  0
   -1.2461    3.5562    0.5237 N   0  0  0  0  0  0  0  0  0  0  0  0
   -1.2035    2.3618   -0.2682 C   0  0  0  0  0  0  0  0  0  0  0  0
   -0.2871    2.2071   -1.3029 C   0  0  0  0  0  0  0  0  0  0  0  0
    0.6519    3.0633   -1.7455 N   0  0  0  0  0  0  0  0  0  0  0  0
    1.2366    2.3698   -2.7603 C   0  0  0  0  0  0  0  0  0  0  0  0
    0.7030    1.1346   -2.9519 N   0  0  0  0  0  0  0  0  0  0  0  0
    1.1263    0.1444   -3.9494 C   0  0  2  0  0  0  0  0  0  0  0  0
    0.2752   -0.9833   -3.9367 O   0  0  0  0  0  0  0  0  0  0  0  0
    1.0730   -2.1403   -4.0970 C   0  0  2  0  0  0  0  0  0  0  0  0
    0.8450   -3.0884   -2.9118 C   0  0  0  0  0  0  0  0  0  0  0  0
    1.1715   -2.4278   -1.7112 O   0  0  0  0  0  0  0  0  0  0  0  0
    1.3723   -3.5872   -0.4749 P   0  0  0  0  0  5  0  0  0  0  0  0
    0.0902   -4.6926   -0.5165 O   0  0  0  0  0  0  0  0  0  0  0  0
    2.6732   -4.3309   -0.6825 O   0  0  0  0  0  0  0  0  0  0  0  0
    1.3889   -2.8439    1.0569 O   0  0  0  0  0  0  0  0  0  0  0  0
    2.2918   -1.4066    0.9270 P   0  0  0  0  0  5  0  0  0  0  0  0
    3.7816   -1.7062    0.1757 O   0  0  0  0  0  0  0  0  0  0  0  0
    1.5174   -0.3801    0.1305 O   0  0  0  0  0  0  0  0  0  0  0  0
    2.5884   -0.7501    2.5985 C   0  0  0  0  0  0  0  0  0  0  0  0
    3.5156    0.7658    2.4844 Cl  0  0  0  0  0  0  0  0  0  0  0  0
    3.5295   -1.9346    3.5365 Cl  0  0  0  0  0  0  0  0  0  0  0  0
    1.0028   -0.4240    3.4368 P   0  0  0  0  0  5  0  0  0  0  0  0
    0.1278    0.7281    2.5588 O   0  0  0  0  0  0  0  0  0  0  0  0
    0.0945   -1.8488    3.5477 O   0  0  0  0  0  0  0  0  0  0  0  0
    1.2673    0.1093    4.8272 O   0  0  0  0  0  0  0  0  0  0  0  0
    2.5480   -1.7282   -4.2217 C   0  0  1  0  0  0  0  0  0  0  0  0
    2.9829   -1.7839   -5.5617 O   0  0  0  0  0  0  0  0  0  0  0  0
    2.5511   -0.3178   -3.6800 C   0  0  1  0  0  0  0  0  0  0  0  0
    3.4833    0.5046   -4.3329 O   0  0  0  0  0  0  0  0  0  0  0  0
   -0.2605    1.0602   -2.0208 C   0  0  0  0  0  0  0  0  0  0  0  0
   -1.1058    0.0296   -1.7767 N   0  0  0  0  0  0  0  0  0  0  0  0
   -2.0166    0.1707   -0.7674 C   0  0  0  0  0  0  0  0  0  0  0  0
   -3.1390   -1.1690   -0.3915 S   0  0  0  0  0  0  0  0  0  0  0  0
   -2.0190   -1.8848    0.8575 C   0  0  0  0  0  0  0  0  0  0  0  0
   -2.5395   -3.2274    1.3827 C   0  0  0  0  0  0  0  0  0  0  0  0
   -3.6910   -3.0799    2.3837 C   0  0  0  0  0  0  0  0  0  0  0  0
   -4.7870   -2.4866    1.7843 F   0  0  0  0  0  0  0  0  0  0  0  0
   -4.0602   -4.3324    2.8386 F   0  0  0  0  0  0  0  0  0  0  0  0
   -3.2919   -2.3150    3.4655 F   0  0  0  0  0  0  0  0  0  0  0  0
   -2.0594    1.3231   -0.0255 N   0  0  0  0  0  0  0  0  0  0  0  0
   -2.7709    7.5774    3.3705 H   0  0  0  0  0  0  0  0  0  0  0  0
   -3.2531    7.1937    5.0672 H   0  0  0  0  0  0  0  0  0  0  0  0
   -1.5804    6.8102    4.5072 H   0  0  0  0  0  0  0  0  0  0  0  0
   -0.9862    5.1142    2.7312 H   0  0  0  0  0  0  0  0  0  0  0  0
   -2.1775    5.8751    1.5966 H   0  0  0  0  0  0  0  0  0  0  0  0
   -3.2365    3.6438    1.2136 H   0  0  0  0  0  0  0  0  0  0  0  0
   -2.0546    2.8865    2.3527 H   0  0  0  0  0  0  0  0  0  0  0  0
   -0.5704    4.3264    0.3137 H   0  0  0  0  0  0  0  0  0  0  0  0
    2.0518    2.7666   -3.3513 H   0  0  0  0  0  0  0  0  0  0  0  0
    1.0640    0.6094   -4.9591 H   0  0  0  0  0  0  0  0  0  0  0  0
    0.7470   -2.6704   -5.0194 H   0  0  0  0  0  0  0  0  0  0  0  0
    1.4652   -4.0002   -3.0804 H   0  0  0  0  0  0  0  0  0  0  0  0
   -0.2275   -3.3836   -2.8923 H   0  0  0  0  0  0  0  0  0  0  0  0
    0.1885   -5.2251    0.3126 H   0  0  0  0  0  0  0  0  0  0  0  0
    4.1292   -0.8125   -0.0718 H   0  0  0  0  0  0  0  0  0  0  0  0
   -0.7502    0.7783    3.0137 H   0  0  0  0  0  0  0  0  0  0  0  0
    0.6211   -2.4447    4.1376 H   0  0  0  0  0  0  0  0  0  0  0  0
    3.2214   -2.3711   -3.6121 H   0  0  0  0  0  0  0  0  0  0  0  0
    2.3767   -1.2192   -6.1099 H   0  0  0  0  0  0  0  0  0  0  0  0
    2.7450   -0.3350   -2.5808 H   0  0  0  0  0  0  0  0  0  0  0  0
    4.3763    0.2438   -3.9868 H   0  0  0  0  0  0  0  0  0  0  0  0
   -1.8772   -1.1663    1.6916 H   0  0  0  0  0  0  0  0  0  0  0  0
   -1.0342   -2.0545    0.3796 H   0  0  0  0  0  0  0  0  0  0  0  0
   -2.8608   -3.8653    0.5308 H   0  0  0  0  0  0  0  0  0  0  0  0
   -1.7014   -3.7511    1.8924 H   0  0  0  0  0  0  0  0  0  0  0  0
  1  2  1  0
  2  3  1  0
  3  4  1  0
  4  5  1  0
  5  6  1  0
  6  7  2  0
  7  8  1  0
  8  9  2  0
  9 10  1  0
 10 11  1  0
 11 12  1  0
 12 13  1  0
 13 14  1  0
 14 15  1  0
 15 16  1  0
 16 17  1  0
 16 18  2  0
 16 19  1  0
 19 20  1  0
 20 21  1  0
 20 22  2  0
 20 23  1  0
 23 24  1  0
 23 25  1  0
 23 26  1  0
 26 27  1  0
 26 28  1  0
 26 29  2  0
 13 30  1  0
 30 31  1  0
 30 32  1  0
 32 33  1  0
 10 34  1  0
 34 35  2  0
 35 36  1  0
 36 37  1  0
 37 38  1  0
 38 39  1  0
 39 40  1  0
 40 41  1  0
 40 42  1  0
 40 43  1  0
 36 44  2  0
 44  6  1  0
 34  7  1  0
 32 11  1  0
  1 45  1  0
  1 46  1  0
  1 47  1  0
  3 48  1  0
  3 49  1  0
  4 50  1  0
  4 51  1  0
  5 52  1  0
  9 53  1  0
 11 54  1  6
 13 55  1  6
 14 56  1  0
 14 57  1  0
 17 58  1  0
 21 59  1  0
 27 60  1  0
 28 61  1  0
 30 62  1  1
 31 63  1  0
 32 64  1  1
 33 65  1  0
 38 66  1  0
 38 67  1  0
 39 68  1  0
 39 69  1  0
M  END
$$$$
