
     RDKit          3D

 36 37  0  0  0  0  0  0  0  0999 V2000
   -0.8446    0.3562   -1.2781 C   0  0  2  0  0  0  0  0  0  0  0  0
   -1.1438   -0.2909   -2.5556 N   0  0  0  0  0  0  0  0  0  0  0  0
   -0.5597   -1.5452   -2.8930 C   0  0  0  0  0  0  0  0  0  0  0  0
   -1.0990   -2.3909   -4.1864 S   0  0  0  0  0  0  0  0  0  0  0  0
    0.5146   -2.0422   -2.1006 N   0  0  0  0  0  0  0  0  0  0  0  0
    1.0810   -1.2441   -1.0483 C   0  0  0  0  0  0  0  0  0  0  0  0
    2.3242   -1.7667   -0.3753 C   0  0  0  0  0  0  0  0  0  0  0  0
    0.5096   -0.0566   -0.7029 C   0  0  0  0  0  0  0  0  0  0  0  0
    1.1241    0.8637    0.2934 C   0  0  0  0  0  0  0  0  0  0  0  0
    0.3879    1.6459    0.9559 O   0  0  0  0  0  0  0  0  0  0  0  0
    2.5114    0.9081    0.4638 O   0  0  0  0  0  0  0  0  0  0  0  0
    3.1468    1.7691    1.4023 C   0  0  0  0  0  0  0  0  0  0  0  0
    4.6505    1.5527    1.3515 C   0  0  0  0  0  0  0  0  0  0  0  0
   -1.9587    0.0702   -0.2922 C   0  0  0  0  0  0  0  0  0  0  0  0
   -2.2182   -1.2434    0.1415 C   0  0  0  0  0  0  0  0  0  0  0  0
   -3.2510   -1.4979    1.0475 C   0  0  0  0  0  0  0  0  0  0  0  0
   -4.0373   -0.4485    1.5279 C   0  0  0  0  0  0  0  0  0  0  0  0
   -3.7954    0.8611    1.1032 C   0  0  0  0  0  0  0  0  0  0  0  0
   -4.5883    1.8981    1.5895 O   0  0  0  0  0  0  0  0  0  0  0  0
   -2.7598    1.1195    0.1937 C   0  0  0  0  0  0  0  0  0  0  0  0
   -0.7956    1.4501   -1.4772 H   0  0  0  0  0  0  0  0  0  0  0  0
   -1.9104    0.0985   -3.1500 H   0  0  0  0  0  0  0  0  0  0  0  0
    0.9358   -2.9686   -2.3386 H   0  0  0  0  0  0  0  0  0  0  0  0
    2.4567   -2.8490   -0.5824 H   0  0  0  0  0  0  0  0  0  0  0  0
    3.2169   -1.2314   -0.7608 H   0  0  0  0  0  0  0  0  0  0  0  0
    2.2521   -1.6523    0.7271 H   0  0  0  0  0  0  0  0  0  0  0  0
    2.9185    2.8285    1.1547 H   0  0  0  0  0  0  0  0  0  0  0  0
    2.7783    1.5449    2.4268 H   0  0  0  0  0  0  0  0  0  0  0  0
    4.8900    0.4974    1.6016 H   0  0  0  0  0  0  0  0  0  0  0  0
    5.0324    1.7819    0.3340 H   0  0  0  0  0  0  0  0  0  0  0  0
    5.1508    2.2204    2.0842 H   0  0  0  0  0  0  0  0  0  0  0  0
   -1.6219   -2.0710   -0.2188 H   0  0  0  0  0  0  0  0  0  0  0  0
   -3.4425   -2.5108    1.3774 H   0  0  0  0  0  0  0  0  0  0  0  0
   -4.8357   -0.6527    2.2299 H   0  0  0  0  0  0  0  0  0  0  0  0
   -4.4395    2.8584    1.3021 H   0  0  0  0  0  0  0  0  0  0  0  0
   -2.5804    2.1373   -0.1302 H   0  0  0  0  0  0  0  0  0  0  0  0
  1  2  1  0
  2  3  1  0
  3  4  2  0
  3  5  1  0
  5  6  1  0
  6  7  1  0
  6  8  2  0
  8  9  1  0
  9 10  2  0
  9 11  1  0
 11 12  1  0
 12 13  1  0
  1 14  1  0
 14 15  2  0
 15 16  1  0
 16 17  2  0
 17 18  1  0
 18 19  1  0
 18 20  2  0
  8  1  1  0
 20 14  1  0
  1 21  1  6
  2 22  1  0
  5 23  1  0
  7 24  1  0
  7 25  1  0
  7 26  1  0
 12 27  1  0
 12 28  1  0
 13 29  1  0
 13 30  1  0
 13 31  1  0
 15 32  1  0
 16 33  1  0
 17 34  1  0
 19 35  1  0
 20 36  1  0
M  END
$$$$
