
     RDKit          3D

 14 14  0  0  0  0  0  0  0  0999 V2000
    2.7950    0.0321    0.0489 O   0  0  0  0  0  0  0  0  0  0  0  0
    1.4024    0.0100    0.0250 C   0  0  0  0  0  0  0  0  0  0  0  0
    0.6938    1.2118   -0.0858 C   0  0  0  0  0  0  0  0  0  0  0  0
   -0.7047    1.2034   -0.1109 C   0  0  0  0  0  0  0  0  0  0  0  0
   -1.4024   -0.0100   -0.0250 C   0  0  0  0  0  0  0  0  0  0  0  0
   -2.7950   -0.0321   -0.0489 O   0  0  0  0  0  0  0  0  0  0  0  0
   -0.6938   -1.2118    0.0858 C   0  0  0  0  0  0  0  0  0  0  0  0
    0.7047   -1.2034    0.1109 C   0  0  0  0  0  0  0  0  0  0  0  0
    3.3366   -0.8207    0.1282 H   0  0  0  0  0  0  0  0  0  0  0  0
    1.2269    2.1517   -0.1525 H   0  0  0  0  0  0  0  0  0  0  0  0
   -1.2440    2.1381   -0.1969 H   0  0  0  0  0  0  0  0  0  0  0  0
   -3.3366    0.8207   -0.1282 H   0  0  0  0  0  0  0  0  0  0  0  0
   -1.2269   -2.1517    0.1525 H   0  0  0  0  0  0  0  0  0  0  0  0
    1.2440   -2.1381    0.1969 H   0  0  0  0  0  0  0  0  0  0  0  0
  1  2  1  0
  2  3  2  0
  3  4  1  0
  4  5  2  0
  5  6  1  0
  5  7  1  0
  7  8  2  0
  8  2  1  0
  1  9  1  0
  3 10  1  0
  4 11  1  0
  6 12  1  0
  7 13  1  0
  8 14  1  0
M  END
$$$$
