
     RDKit          3D

 40 44  0  0  0  0  0  0  0  0999 V2000
    5.6567   -2.5863   -0.0556 C   0  0  0  0  0  0  0  0  0  0  0  0
    5.1503   -1.2557   -0.0263 O   0  0  0  0  0  0  0  0  0  0  0  0
    3.7863   -0.9219   -0.0193 C   0  0  0  0  0  0  0  0  0  0  0  0
    3.4363    0.4381    0.0108 C   0  0  0  0  0  0  0  0  0  0  0  0
    4.4697    1.3887    0.0322 O   0  0  0  0  0  0  0  0  0  0  0  0
    4.2708    2.7984    0.0634 C   0  0  0  0  0  0  0  0  0  0  0  0
    2.0785    0.8126    0.0187 C   0  0  0  0  0  0  0  0  0  0  0  0
    1.0747   -0.1650   -0.0033 C   0  0  0  0  0  0  0  0  0  0  0  0
   -0.2860    0.1659    0.0036 C   0  0  0  0  0  0  0  0  0  0  0  0
   -1.2361   -0.8347   -0.0189 C   0  0  0  0  0  0  0  0  0  0  0  0
   -0.9065   -2.1513   -0.0480 N   0  0  0  0  0  4  0  0  0  0  0  0
    0.4082   -2.5174   -0.0557 C   0  0  0  0  0  0  0  0  0  0  0  0
    1.4265   -1.5370   -0.0336 C   0  0  0  0  0  0  0  0  0  0  0  0
    2.7778   -1.9054   -0.0414 C   0  0  0  0  0  0  0  0  0  0  0  0
   -2.5524   -0.2398   -0.0061 C   0  0  0  0  0  0  0  0  0  0  0  0
   -2.3879    1.1461    0.0247 C   0  0  0  0  0  0  0  0  0  0  0  0
   -0.9343    1.5262    0.0336 C   0  0  0  0  0  0  0  0  0  0  0  0
   -3.4987    2.0053    0.0434 C   0  0  0  0  0  0  0  0  0  0  0  0
   -4.7577    1.3940    0.0294 C   0  0  0  0  0  0  0  0  0  0  0  0
   -6.0024    1.9929    0.0423 O   0  0  0  0  0  0  0  0  0  0  0  0
   -6.9960    0.9577    0.0190 C   0  0  0  0  0  0  0  0  0  0  0  0
   -6.2579   -0.2726   -0.0080 O   0  0  0  0  0  0  0  0  0  0  0  0
   -4.9111    0.0343   -0.0008 C   0  0  0  0  0  0  0  0  0  0  0  0
   -3.8204   -0.8411   -0.0198 C   0  0  0  0  0  0  0  0  0  0  0  0
    6.7654   -2.5520   -0.0545 H   0  0  0  0  0  0  0  0  0  0  0  0
    5.3183   -3.1036   -0.9781 H   0  0  0  0  0  0  0  0  0  0  0  0
    5.3178   -3.1438    0.8430 H   0  0  0  0  0  0  0  0  0  0  0  0
    3.7149    3.1259   -0.8404 H   0  0  0  0  0  0  0  0  0  0  0  0
    3.7143    3.0854    0.9806 H   0  0  0  0  0  0  0  0  0  0  0  0
    5.2583    3.3034    0.0750 H   0  0  0  0  0  0  0  0  0  0  0  0
    1.8026    1.8581    0.0418 H   0  0  0  0  0  0  0  0  0  0  0  0
   -1.6502   -2.8841   -0.0645 H   0  0  0  0  0  0  0  0  0  0  0  0
    0.6643   -3.5701   -0.0790 H   0  0  0  0  0  0  0  0  0  0  0  0
    3.0382   -2.9556   -0.0646 H   0  0  0  0  0  0  0  0  0  0  0  0
   -0.6740    2.0701    0.9661 H   0  0  0  0  0  0  0  0  0  0  0  0
   -0.6735    2.1109   -0.8738 H   0  0  0  0  0  0  0  0  0  0  0  0
   -3.3887    3.0814    0.0673 H   0  0  0  0  0  0  0  0  0  0  0  0
   -7.6219    1.0486   -0.8934 H   0  0  0  0  0  0  0  0  0  0  0  0
   -7.6225    1.0081    0.9341 H   0  0  0  0  0  0  0  0  0  0  0  0
   -3.9516   -1.9146   -0.0437 H   0  0  0  0  0  0  0  0  0  0  0  0
  1  2  1  0
  2  3  1  0
  3  4  2  0
  4  5  1  0
  5  6  1  0
  4  7  1  0
  7  8  2  0
  8  9  1  0
  9 10  2  0
 10 11  1  0
 11 12  2  0
 12 13  1  0
 13 14  2  0
 10 15  1  0
 15 16  2  0
 16 17  1  0
 16 18  1  0
 18 19  2  0
 19 20  1  0
 20 21  1  0
 21 22  1  0
 22 23  1  0
 23 24  2  0
 14  3  1  0
 24 15  1  0
 13  8  1  0
 23 19  1  0
 17  9  1  0
  1 25  1  0
  1 26  1  0
  1 27  1  0
  6 28  1  0
  6 29  1  0
  6 30  1  0
  7 31  1  0
 11 32  1  0
 12 33  1  0
 14 34  1  0
 17 35  1  0
 17 36  1  0
 18 37  1  0
 21 38  1  0
 21 39  1  0
 24 40  1  0
M  CHG  1  11   1
M  END
$$$$
