
     RDKit          3D

 35 37  0  0  0  0  0  0  0  0999 V2000
    2.9610   -1.9636    0.8015 C   0  0  0  0  0  0  0  0  0  0  0  0
    3.8478   -0.9111    0.2117 C   0  0  0  0  0  0  0  0  0  0  0  0
    3.3944    0.2950   -0.3564 C   0  0  0  0  0  0  0  0  0  0  0  0
    4.7553    1.1495   -0.8820 S   0  0  0  0  0  0  0  0  0  0  0  0
    5.8293   -0.0310   -0.3720 C   0  0  0  0  0  0  0  0  0  0  0  0
    7.2447    0.0472   -0.5146 N   0  0  0  0  0  0  0  0  0  0  0  0
    5.1995   -1.0784    0.1962 N   0  0  0  0  0  0  0  0  0  0  0  0
    1.9929    0.7683   -0.4901 C   0  0  0  0  0  0  0  0  0  0  0  0
    0.9660    0.0012   -0.0342 N   0  0  0  0  0  0  0  0  0  0  0  0
   -0.3298    0.3971   -0.1439 C   0  0  0  0  0  0  0  0  0  0  0  0
   -1.3704   -0.4385    0.3825 N   0  0  0  0  0  0  0  0  0  0  0  0
   -2.7721   -0.2389    0.1327 C   0  0  0  0  0  0  0  0  0  0  0  0
   -3.2362    0.1966   -1.1200 C   0  0  0  0  0  0  0  0  0  0  0  0
   -4.6043    0.3588   -1.3458 C   0  0  0  0  0  0  0  0  0  0  0  0
   -5.5228    0.0756   -0.3327 C   0  0  0  0  0  0  0  0  0  0  0  0
   -5.0810   -0.3848    0.9208 C   0  0  0  0  0  0  0  0  0  0  0  0
   -3.7007   -0.5461    1.1392 C   0  0  0  0  0  0  0  0  0  0  0  0
   -6.0240   -0.6892    1.9650 N   0  0  0  0  0  4  0  0  0  0  0  0
   -5.5895   -1.1402    3.1905 O   0  0  0  0  0  1  0  0  0  0  0  0
   -7.2503   -0.5487    1.7766 O   0  0  0  0  0  0  0  0  0  0  0  0
   -0.6179    1.6027   -0.7037 N   0  0  0  0  0  0  0  0  0  0  0  0
    0.3677    2.4070   -1.1755 C   0  0  0  0  0  0  0  0  0  0  0  0
    1.6996    2.0067   -1.0814 C   0  0  0  0  0  0  0  0  0  0  0  0
    2.2669   -2.3513    0.0269 H   0  0  0  0  0  0  0  0  0  0  0  0
    3.5698   -2.8115    1.1806 H   0  0  0  0  0  0  0  0  0  0  0  0
    2.3846   -1.5408    1.6506 H   0  0  0  0  0  0  0  0  0  0  0  0
    7.6843    0.8813   -0.9626 H   0  0  0  0  0  0  0  0  0  0  0  0
    7.8519   -0.7296   -0.1718 H   0  0  0  0  0  0  0  0  0  0  0  0
   -1.0915   -1.1903    1.0531 H   0  0  0  0  0  0  0  0  0  0  0  0
   -2.5463    0.3869   -1.9312 H   0  0  0  0  0  0  0  0  0  0  0  0
   -4.9548    0.6966   -2.3126 H   0  0  0  0  0  0  0  0  0  0  0  0
   -6.5784    0.2082   -0.5325 H   0  0  0  0  0  0  0  0  0  0  0  0
   -3.3400   -0.9011    2.0963 H   0  0  0  0  0  0  0  0  0  0  0  0
    0.1169    3.3600   -1.6218 H   0  0  0  0  0  0  0  0  0  0  0  0
    2.4773    2.6565   -1.4602 H   0  0  0  0  0  0  0  0  0  0  0  0
  1  2  1  0
  2  3  2  0
  3  4  1  0
  4  5  1  0
  5  6  1  0
  5  7  2  0
  3  8  1  0
  8  9  2  0
  9 10  1  0
 10 11  1  0
 11 12  1  0
 12 13  2  0
 13 14  1  0
 14 15  2  0
 15 16  1  0
 16 17  2  0
 16 18  1  0
 18 19  1  0
 18 20  2  0
 10 21  2  0
 21 22  1  0
 22 23  2  0
  7  2  1  0
 23  8  1  0
 17 12  1  0
  1 24  1  0
  1 25  1  0
  1 26  1  0
  6 27  1  0
  6 28  1  0
 11 29  1  0
 13 30  1  0
 14 31  1  0
 15 32  1  0
 17 33  1  0
 22 34  1  0
 23 35  1  0
M  CHG  2  18   1  19  -1
M  END
$$$$
