
     RDKit          3D

 37 40  0  0  0  0  0  0  0  0999 V2000
   -0.6972   -0.9115   -1.4134 O   0  0  0  0  0  0  0  0  0  0  0  0
   -1.5961   -0.8365   -0.3445 C   0  0  0  0  0  0  0  0  0  0  0  0
   -1.2053   -1.3763    0.8975 C   0  0  0  0  0  0  0  0  0  0  0  0
    0.1683   -2.0015    1.0700 C   0  0  0  0  0  0  0  0  0  0  0  0
    1.2666   -0.9501    1.0332 C   0  0  0  0  0  0  0  0  0  0  0  0
    2.1699   -0.8038   -0.0539 C   0  0  0  0  0  0  0  0  0  0  0  0
    2.1443   -1.6355   -1.1805 O   0  0  0  0  0  0  0  0  0  0  0  0
    3.1378    0.2151   -0.0046 C   0  0  0  0  0  0  0  0  0  0  0  0
    3.1864    1.0544    1.1283 C   0  0  0  0  0  0  0  0  0  0  0  0
    2.3340    0.8805    2.1277 O   0  0  0  0  0  0  0  0  0  0  0  0
    1.4022   -0.0643    2.1265 C   0  0  0  0  0  0  0  0  0  0  0  0
    0.6393   -0.1586    3.1245 O   0  0  0  0  0  0  0  0  0  0  0  0
    4.1389    2.0771    1.2041 C   0  0  0  0  0  0  0  0  0  0  0  0
    5.0453    2.2712    0.1590 C   0  0  0  0  0  0  0  0  0  0  0  0
    5.0044    1.4442   -0.9661 C   0  0  0  0  0  0  0  0  0  0  0  0
    4.0570    0.4195   -1.0518 C   0  0  0  0  0  0  0  0  0  0  0  0
   -2.1196   -1.3229    1.9695 C   0  0  0  0  0  0  0  0  0  0  0  0
   -1.8222   -1.8069    3.0941 O   0  0  0  0  0  0  0  0  0  0  0  0
   -3.3119   -0.7638    1.8129 O   0  0  0  0  0  0  0  0  0  0  0  0
   -3.7176   -0.2328    0.6674 C   0  0  0  0  0  0  0  0  0  0  0  0
   -2.8755   -0.2444   -0.4706 C   0  0  0  0  0  0  0  0  0  0  0  0
   -3.3493    0.3329   -1.6690 C   0  0  0  0  0  0  0  0  0  0  0  0
   -4.6257    0.9013   -1.7238 C   0  0  0  0  0  0  0  0  0  0  0  0
   -5.4450    0.9045   -0.5948 C   0  0  0  0  0  0  0  0  0  0  0  0
   -4.9926    0.3393    0.5975 C   0  0  0  0  0  0  0  0  0  0  0  0
   -0.8772   -0.5644   -2.3435 H   0  0  0  0  0  0  0  0  0  0  0  0
    0.2425   -2.5423    2.0374 H   0  0  0  0  0  0  0  0  0  0  0  0
    0.2942   -2.8012    0.3204 H   0  0  0  0  0  0  0  0  0  0  0  0
    1.4975   -2.3944   -1.3299 H   0  0  0  0  0  0  0  0  0  0  0  0
    4.1767    2.7215    2.0735 H   0  0  0  0  0  0  0  0  0  0  0  0
    5.7804    3.0631    0.2212 H   0  0  0  0  0  0  0  0  0  0  0  0
    5.7084    1.5976   -1.7738 H   0  0  0  0  0  0  0  0  0  0  0  0
    4.0474   -0.2061   -1.9355 H   0  0  0  0  0  0  0  0  0  0  0  0
   -2.7595    0.3613   -2.5709 H   0  0  0  0  0  0  0  0  0  0  0  0
   -4.9807    1.3420   -2.6466 H   0  0  0  0  0  0  0  0  0  0  0  0
   -6.4320    1.3461   -0.6439 H   0  0  0  0  0  0  0  0  0  0  0  0
   -5.6339    0.3457    1.4700 H   0  0  0  0  0  0  0  0  0  0  0  0
  1  2  1  0
  2  3  2  0
  3  4  1  0
  4  5  1  0
  5  6  2  0
  6  7  1  0
  6  8  1  0
  8  9  2  0
  9 10  1  0
 10 11  1  0
 11 12  2  0
  9 13  1  0
 13 14  2  0
 14 15  1  0
 15 16  2  0
  3 17  1  0
 17 18  2  0
 17 19  1  0
 19 20  1  0
 20 21  2  0
 21 22  1  0
 22 23  2  0
 23 24  1  0
 24 25  2  0
 21  2  1  0
 11  5  1  0
 25 20  1  0
 16  8  1  0
  1 26  1  0
  4 27  1  0
  4 28  1  0
  7 29  1  0
 13 30  1  0
 14 31  1  0
 15 32  1  0
 16 33  1  0
 22 34  1  0
 23 35  1  0
 24 36  1  0
 25 37  1  0
M  END
$$$$
