
     RDKit          3D

 47 48  0  0  0  0  0  0  0  0999 V2000
    5.9746   -0.2591   -0.9789 C   0  0  0  0  0  0  0  0  0  0  0  0
    5.2016    0.4243    0.0023 O   0  0  0  0  0  0  0  0  0  0  0  0
    3.7994    0.4354    0.0390 C   0  0  0  0  0  0  0  0  0  0  0  0
    3.1667    1.1489    1.0608 C   0  0  0  0  0  0  0  0  0  0  0  0
    1.7726    1.1912    1.1408 C   0  0  0  0  0  0  0  0  0  0  0  0
    0.9769    0.5191    0.1945 C   0  0  0  0  0  0  0  0  0  0  0  0
    1.6189   -0.2021   -0.8318 C   0  0  0  0  0  0  0  0  0  0  0  0
    3.0138   -0.2422   -0.9103 C   0  0  0  0  0  0  0  0  0  0  0  0
   -0.5465    0.5725    0.3207 C   0  0  0  0  0  0  0  0  0  0  0  0
   -1.2178    0.9084   -1.0411 C   0  0  0  0  0  0  0  0  0  0  0  0
   -0.6743    2.1719   -1.5934 N   0  0  0  0  0  0  0  0  0  0  0  0
   -1.4308    3.3369   -1.1020 C   0  0  0  0  0  0  0  0  0  0  0  0
   -0.7051    2.1518   -3.0647 C   0  0  0  0  0  0  0  0  0  0  0  0
   -1.1360   -0.6925    1.0603 C   0  0  0  0  0  0  0  0  0  0  0  0
   -0.2730   -1.0499    2.1202 O   0  0  0  0  0  0  0  0  0  0  0  0
   -1.2427   -1.9262    0.1259 C   0  0  0  0  0  0  0  0  0  0  0  0
   -1.7241   -3.1872    0.8751 C   0  0  0  0  0  0  0  0  0  0  0  0
   -2.7155   -2.8835    2.0146 C   0  0  0  0  0  0  0  0  0  0  0  0
   -3.4911   -1.5902    1.7600 C   0  0  0  0  0  0  0  0  0  0  0  0
   -2.5522   -0.3706    1.6575 C   0  0  0  0  0  0  0  0  0  0  0  0
    7.0518   -0.0991   -0.7679 H   0  0  0  0  0  0  0  0  0  0  0  0
    5.7472    0.1399   -1.9900 H   0  0  0  0  0  0  0  0  0  0  0  0
    5.7628   -1.3485   -0.9411 H   0  0  0  0  0  0  0  0  0  0  0  0
    3.7597    1.6737    1.7991 H   0  0  0  0  0  0  0  0  0  0  0  0
    1.3141    1.7499    1.9473 H   0  0  0  0  0  0  0  0  0  0  0  0
    1.0522   -0.7315   -1.5836 H   0  0  0  0  0  0  0  0  0  0  0  0
    3.4710   -0.8031   -1.7140 H   0  0  0  0  0  0  0  0  0  0  0  0
   -0.7796    1.4329    0.9853 H   0  0  0  0  0  0  0  0  0  0  0  0
   -2.3223    0.9699   -0.9380 H   0  0  0  0  0  0  0  0  0  0  0  0
   -1.0391    0.0694   -1.7460 H   0  0  0  0  0  0  0  0  0  0  0  0
   -2.4923    3.3000   -1.4347 H   0  0  0  0  0  0  0  0  0  0  0  0
   -1.4024    3.3848    0.0059 H   0  0  0  0  0  0  0  0  0  0  0  0
   -0.9695    4.2761   -1.4763 H   0  0  0  0  0  0  0  0  0  0  0  0
   -0.0502    1.3395   -3.4472 H   0  0  0  0  0  0  0  0  0  0  0  0
   -1.7403    1.9949   -3.4425 H   0  0  0  0  0  0  0  0  0  0  0  0
   -0.3084    3.1062   -3.4736 H   0  0  0  0  0  0  0  0  0  0  0  0
   -0.1889   -0.2708    2.7303 H   0  0  0  0  0  0  0  0  0  0  0  0
   -1.9665   -1.7189   -0.6915 H   0  0  0  0  0  0  0  0  0  0  0  0
   -0.2622   -2.1553   -0.3368 H   0  0  0  0  0  0  0  0  0  0  0  0
   -0.8469   -3.7227    1.2997 H   0  0  0  0  0  0  0  0  0  0  0  0
   -2.2033   -3.8734    0.1428 H   0  0  0  0  0  0  0  0  0  0  0  0
   -2.1647   -2.7909    2.9764 H   0  0  0  0  0  0  0  0  0  0  0  0
   -3.4290   -3.7291    2.1205 H   0  0  0  0  0  0  0  0  0  0  0  0
   -4.2228   -1.4279    2.5809 H   0  0  0  0  0  0  0  0  0  0  0  0
   -4.0681   -1.6959    0.8146 H   0  0  0  0  0  0  0  0  0  0  0  0
   -2.4380    0.0731    2.6707 H   0  0  0  0  0  0  0  0  0  0  0  0
   -3.0796    0.3999    1.0600 H   0  0  0  0  0  0  0  0  0  0  0  0
  1  2  1  0
  2  3  1  0
  3  4  2  0
  4  5  1  0
  5  6  2  0
  6  7  1  0
  7  8  2  0
  6  9  1  0
  9 10  1  0
 10 11  1  0
 11 12  1  0
 11 13  1  0
  9 14  1  0
 14 15  1  0
 14 16  1  0
 16 17  1  0
 17 18  1  0
 18 19  1  0
 19 20  1  0
  8  3  1  0
 20 14  1  0
  1 21  1  0
  1 22  1  0
  1 23  1  0
  4 24  1  0
  5 25  1  0
  7 26  1  0
  8 27  1  0
  9 28  1  0
 10 29  1  0
 10 30  1  0
 12 31  1  0
 12 32  1  0
 12 33  1  0
 13 34  1  0
 13 35  1  0
 13 36  1  0
 15 37  1  0
 16 38  1  0
 16 39  1  0
 17 40  1  0
 17 41  1  0
 18 42  1  0
 18 43  1  0
 19 44  1  0
 19 45  1  0
 20 46  1  0
 20 47  1  0
M  END
$$$$
