
     RDKit          3D

 27 27  0  0  0  0  0  0  0  0999 V2000
   -3.0240   -1.6449   -0.0640 C   0  0  0  0  0  0  0  0  0  0  0  0
   -2.5304   -0.7145    1.0400 C   0  0  0  0  0  0  0  0  0  0  0  0
   -1.4428    0.2006    0.5290 C   0  0  0  0  0  0  0  0  0  0  0  0
   -0.0999   -0.1642    0.7351 C   0  0  0  0  0  0  0  0  0  0  0  0
    0.9459    0.6482    0.2725 C   0  0  0  0  0  0  0  0  0  0  0  0
    2.3782    0.2306    0.4750 C   0  0  0  0  0  0  0  0  0  0  0  0
    2.8521   -0.6516   -0.6877 C   0  0  0  0  0  0  0  0  0  0  0  0
    4.2413   -1.0674   -0.5076 N   0  0  0  0  0  0  0  0  0  0  0  0
    0.6456    1.8215   -0.4311 C   0  0  0  0  0  0  0  0  0  0  0  0
   -0.6822    2.1867   -0.6558 C   0  0  0  0  0  0  0  0  0  0  0  0
   -1.7315    1.3868   -0.1902 C   0  0  0  0  0  0  0  0  0  0  0  0
   -3.0379    1.7968   -0.4665 O   0  0  0  0  0  0  0  0  0  0  0  0
   -3.4407   -1.0611   -0.9117 H   0  0  0  0  0  0  0  0  0  0  0  0
   -3.8205   -2.3069    0.3362 H   0  0  0  0  0  0  0  0  0  0  0  0
   -2.1887   -2.2772   -0.4339 H   0  0  0  0  0  0  0  0  0  0  0  0
   -2.1481   -1.3344    1.8805 H   0  0  0  0  0  0  0  0  0  0  0  0
   -3.3765   -0.1286    1.4552 H   0  0  0  0  0  0  0  0  0  0  0  0
    0.1342   -1.0850    1.2568 H   0  0  0  0  0  0  0  0  0  0  0  0
    3.0267    1.1310    0.5502 H   0  0  0  0  0  0  0  0  0  0  0  0
    2.4757   -0.3272    1.4322 H   0  0  0  0  0  0  0  0  0  0  0  0
    2.7638   -0.0915   -1.6443 H   0  0  0  0  0  0  0  0  0  0  0  0
    2.2104   -1.5571   -0.7580 H   0  0  0  0  0  0  0  0  0  0  0  0
    4.3231   -1.5901    0.3948 H   0  0  0  0  0  0  0  0  0  0  0  0
    4.8428   -0.2144   -0.4371 H   0  0  0  0  0  0  0  0  0  0  0  0
    1.4404    2.4508   -0.8124 H   0  0  0  0  0  0  0  0  0  0  0  0
   -0.8989    3.0941   -1.2053 H   0  0  0  0  0  0  0  0  0  0  0  0
   -3.8581    1.2691   -0.2006 H   0  0  0  0  0  0  0  0  0  0  0  0
  1  2  1  0
  2  3  1  0
  3  4  2  0
  4  5  1  0
  5  6  1  0
  6  7  1  0
  7  8  1  0
  5  9  2  0
  9 10  1  0
 10 11  2  0
 11 12  1  0
 11  3  1  0
  1 13  1  0
  1 14  1  0
  1 15  1  0
  2 16  1  0
  2 17  1  0
  4 18  1  0
  6 19  1  0
  6 20  1  0
  7 21  1  0
  7 22  1  0
  8 23  1  0
  8 24  1  0
  9 25  1  0
 10 26  1  0
 12 27  1  0
M  END
$$$$
