
     RDKit          3D

 38 41  0  0  0  0  0  0  0  0999 V2000
    5.5035    2.8646   -0.2845 O   0  0  0  0  0  0  0  0  0  0  0  0
    5.4375    1.6518   -0.9658 C   0  0  0  0  0  0  0  0  0  0  0  0
    6.3439    1.3579   -1.7916 O   0  0  0  0  0  0  0  0  0  0  0  0
    4.3146    0.7197   -0.7221 C   0  0  0  0  0  0  0  0  0  0  0  0
    4.2397   -0.5076   -1.4036 C   0  0  0  0  0  0  0  0  0  0  0  0
    3.1768   -1.3848   -1.1698 C   0  0  0  0  0  0  0  0  0  0  0  0
    2.1630   -1.0481   -0.2594 C   0  0  0  0  0  0  0  0  0  0  0  0
    2.2452    0.1696    0.4341 C   0  0  0  0  0  0  0  0  0  0  0  0
    3.3082    1.0472    0.2018 C   0  0  0  0  0  0  0  0  0  0  0  0
    1.0475   -1.9870   -0.0125 C   0  0  0  0  0  0  0  0  0  0  0  0
    1.1388   -3.3788    0.0443 C   0  0  0  0  0  0  0  0  0  0  0  0
   -0.0713   -3.9260    0.3002 N   0  0  0  0  0  0  0  0  0  0  0  0
   -0.9222   -2.8931    0.3944 C   0  0  0  0  0  0  0  0  0  0  0  0
   -0.2898   -1.6968    0.2078 C   0  0  0  0  0  0  0  0  0  0  0  0
   -1.0094   -0.5038    0.2004 C   0  0  0  0  0  0  0  0  0  0  0  0
   -2.4028   -0.5679    0.4312 C   0  0  0  0  0  0  0  0  0  0  0  0
   -3.0049   -1.8383    0.6408 C   0  0  0  0  0  0  0  0  0  0  0  0
   -2.2566   -2.9807    0.6111 N   0  0  0  0  0  0  0  0  0  0  0  0
   -3.2216    0.6709    0.4459 C   0  0  0  0  0  0  0  0  0  0  0  0
   -2.7262    1.8484    1.0383 C   0  0  0  0  0  0  0  0  0  0  0  0
   -3.4980    3.0142    1.0505 C   0  0  0  0  0  0  0  0  0  0  0  0
   -4.7693    3.0194    0.4725 C   0  0  0  0  0  0  0  0  0  0  0  0
   -5.2718    1.8584   -0.1191 C   0  0  0  0  0  0  0  0  0  0  0  0
   -4.5047    0.6893   -0.1335 C   0  0  0  0  0  0  0  0  0  0  0  0
    6.2678    3.5101   -0.4440 H   0  0  0  0  0  0  0  0  0  0  0  0
    5.0021   -0.7909   -2.1186 H   0  0  0  0  0  0  0  0  0  0  0  0
    3.1391   -2.3212   -1.7126 H   0  0  0  0  0  0  0  0  0  0  0  0
    1.5044    0.4325    1.1778 H   0  0  0  0  0  0  0  0  0  0  0  0
    3.3447    1.9786    0.7528 H   0  0  0  0  0  0  0  0  0  0  0  0
    2.0443   -3.9580   -0.0825 H   0  0  0  0  0  0  0  0  0  0  0  0
   -0.2958   -4.9413    0.3940 H   0  0  0  0  0  0  0  0  0  0  0  0
   -0.5211    0.4372   -0.0130 H   0  0  0  0  0  0  0  0  0  0  0  0
   -4.0665   -1.9170    0.8344 H   0  0  0  0  0  0  0  0  0  0  0  0
   -1.7502    1.8632    1.5069 H   0  0  0  0  0  0  0  0  0  0  0  0
   -3.1110    3.9137    1.5117 H   0  0  0  0  0  0  0  0  0  0  0  0
   -5.3649    3.9230    0.4827 H   0  0  0  0  0  0  0  0  0  0  0  0
   -6.2555    1.8648   -0.5706 H   0  0  0  0  0  0  0  0  0  0  0  0
   -4.9074   -0.1933   -0.6140 H   0  0  0  0  0  0  0  0  0  0  0  0
  1  2  1  0
  2  3  2  0
  2  4  1  0
  4  5  2  0
  5  6  1  0
  6  7  2  0
  7  8  1  0
  8  9  2  0
  7 10  1  0
 10 11  2  0
 11 12  1  0
 12 13  1  0
 13 14  2  0
 14 15  1  0
 15 16  2  0
 16 17  1  0
 17 18  2  0
 16 19  1  0
 19 20  2  0
 20 21  1  0
 21 22  2  0
 22 23  1  0
 23 24  2  0
  9  4  1  0
 14 10  1  0
 24 19  1  0
 18 13  1  0
  1 25  1  0
  5 26  1  0
  6 27  1  0
  8 28  1  0
  9 29  1  0
 11 30  1  0
 12 31  1  0
 15 32  1  0
 17 33  1  0
 20 34  1  0
 21 35  1  0
 22 36  1  0
 23 37  1  0
 24 38  1  0
M  END
$$$$
