
     RDKit          3D

 36 37  0  0  0  0  0  0  0  0999 V2000
    6.9848   -0.3899   -0.0333 C   0  0  0  0  0  0  0  0  0  0  0  0
    5.8482   -0.1341    0.7852 O   0  0  0  0  0  0  0  0  0  0  0  0
    4.5221   -0.1579    0.3284 C   0  0  0  0  0  0  0  0  0  0  0  0
    3.4983    0.1139    1.2435 C   0  0  0  0  0  0  0  0  0  0  0  0
    2.1607    0.1018    0.8380 C   0  0  0  0  0  0  0  0  0  0  0  0
    1.8274   -0.1955   -0.4921 C   0  0  0  0  0  0  0  0  0  0  0  0
    0.3921   -0.1719   -0.9386 C   0  0  0  0  0  0  0  0  0  0  0  0
    0.0593    1.1570   -1.4556 N   0  0  0  0  0  0  0  0  0  0  0  0
   -1.5612    1.1555   -2.0822 S   0  0  0  0  0  6  0  0  0  0  0  0
   -1.9018    2.5289   -2.5873 O   0  0  0  0  0  0  0  0  0  0  0  0
   -1.6618    0.1831   -3.2244 O   0  0  0  0  0  0  0  0  0  0  0  0
   -2.7025    0.7095   -0.8263 C   0  0  0  0  0  0  0  0  0  0  0  0
   -3.0077    1.4755    0.2901 C   0  0  0  0  0  0  0  0  0  0  0  0
   -3.9271    0.8548    1.1426 C   0  0  0  0  0  0  0  0  0  0  0  0
   -4.3268   -0.3952    0.6899 C   0  0  0  0  0  0  0  0  0  0  0  0
   -3.5550   -0.7389   -0.7643 S   0  0  0  0  0  0  0  0  0  0  0  0
   -5.4760   -1.4477    1.4934 S   0  0  0  0  0  6  0  0  0  0  0  0
   -7.0849   -0.8906    1.1963 N   0  0  0  0  0  0  0  0  0  0  0  0
   -5.2053   -1.4493    2.9714 O   0  0  0  0  0  0  0  0  0  0  0  0
   -5.3273   -2.8481    0.9690 O   0  0  0  0  0  0  0  0  0  0  0  0
    2.8511   -0.4532   -1.4162 C   0  0  0  0  0  0  0  0  0  0  0  0
    4.1890   -0.4410   -1.0102 C   0  0  0  0  0  0  0  0  0  0  0  0
    7.9025   -0.3060    0.5841 H   0  0  0  0  0  0  0  0  0  0  0  0
    6.9305   -1.4170   -0.4521 H   0  0  0  0  0  0  0  0  0  0  0  0
    7.0394    0.3557   -0.8546 H   0  0  0  0  0  0  0  0  0  0  0  0
    3.7415    0.3394    2.2741 H   0  0  0  0  0  0  0  0  0  0  0  0
    1.3854    0.3250    1.5606 H   0  0  0  0  0  0  0  0  0  0  0  0
    0.2453   -0.9389   -1.7308 H   0  0  0  0  0  0  0  0  0  0  0  0
   -0.2729   -0.4363   -0.0859 H   0  0  0  0  0  0  0  0  0  0  0  0
    0.0719    1.8309   -0.6552 H   0  0  0  0  0  0  0  0  0  0  0  0
   -2.5775    2.4490    0.4846 H   0  0  0  0  0  0  0  0  0  0  0  0
   -4.2863    1.3033    2.0594 H   0  0  0  0  0  0  0  0  0  0  0  0
   -7.1351    0.0944    1.5404 H   0  0  0  0  0  0  0  0  0  0  0  0
   -7.2083   -0.8538    0.1596 H   0  0  0  0  0  0  0  0  0  0  0  0
    2.6129   -0.6633   -2.4518 H   0  0  0  0  0  0  0  0  0  0  0  0
    4.9553   -0.6490   -1.7444 H   0  0  0  0  0  0  0  0  0  0  0  0
  1  2  1  0
  2  3  1  0
  3  4  2  0
  4  5  1  0
  5  6  2  0
  6  7  1  0
  7  8  1  0
  8  9  1  0
  9 10  2  0
  9 11  2  0
  9 12  1  0
 12 13  2  0
 13 14  1  0
 14 15  2  0
 15 16  1  0
 15 17  1  0
 17 18  1  0
 17 19  2  0
 17 20  2  0
  6 21  1  0
 21 22  2  0
 22  3  1  0
 16 12  1  0
  1 23  1  0
  1 24  1  0
  1 25  1  0
  4 26  1  0
  5 27  1  0
  7 28  1  0
  7 29  1  0
  8 30  1  0
 13 31  1  0
 14 32  1  0
 18 33  1  0
 18 34  1  0
 21 35  1  0
 22 36  1  0
M  END
$$$$
