
     RDKit          3D

 55 57  0  0  0  0  0  0  0  0999 V2000
   -2.8212   -1.2019    0.6530 C   0  0  2  0  0  0  0  0  0  0  0  0
   -3.4744   -0.0052    1.3748 C   0  0  0  0  0  0  0  0  0  0  0  0
   -2.8768    0.2068    2.6258 O   0  0  0  0  0  0  0  0  0  0  0  0
   -1.3486   -1.1665    0.6794 N   0  0  0  0  0  0  0  0  0  0  0  0
   -0.5009   -0.0699    0.2993 C   0  0  0  0  0  0  0  0  0  0  0  0
   -0.9775    1.2129    0.2426 N   0  0  0  0  0  0  0  0  0  0  0  0
   -0.1161    2.2037   -0.0967 C   0  0  0  0  0  0  0  0  0  0  0  0
    1.1861    1.9693   -0.3781 C   0  0  0  0  0  0  0  0  0  0  0  0
    1.8267    3.1205   -0.6521 N   0  0  0  0  0  0  0  0  0  0  0  0
    0.8431    4.0511   -0.5179 C   0  0  0  0  0  0  0  0  0  0  0  0
   -0.3601    3.5223   -0.1733 N   0  0  0  0  0  0  0  0  0  0  0  0
   -1.5958    4.2672    0.0973 C   0  0  0  0  0  0  0  0  0  0  0  0
   -2.6967    3.8675   -0.8864 C   0  0  0  0  0  0  0  0  0  0  0  0
   -2.0416    4.0700    1.5492 C   0  0  0  0  0  0  0  0  0  0  0  0
    1.6922    0.6774   -0.3128 C   0  0  0  0  0  0  0  0  0  0  0  0
    3.0664    0.3967   -0.6243 N   0  0  0  0  0  0  0  0  0  0  0  0
    3.7079   -0.8605   -0.3515 C   0  0  0  0  0  0  0  0  0  0  0  0
    4.6735   -1.3457   -1.2389 C   0  0  0  0  0  0  0  0  0  0  0  0
    5.3225   -2.5557   -0.9880 C   0  0  0  0  0  0  0  0  0  0  0  0
    5.0364   -3.3034    0.1700 C   0  0  0  0  0  0  0  0  0  0  0  0
    5.7654   -4.5785    0.3950 C   0  0  0  0  0  0  0  0  0  0  0  0
    5.8608   -5.1391    1.6650 O   0  0  0  0  0  0  0  0  0  0  0  0
    6.3341   -5.1577   -0.5702 O   0  0  0  0  0  0  0  0  0  0  0  0
    4.0697   -2.8037    1.0778 C   0  0  0  0  0  0  0  0  0  0  0  0
    3.5856   -3.6671    2.5351 Cl  0  0  0  0  0  0  0  0  0  0  0  0
    3.4255   -1.5878    0.8152 C   0  0  0  0  0  0  0  0  0  0  0  0
    0.8203   -0.3199    0.0244 N   0  0  0  0  0  0  0  0  0  0  0  0
   -3.3827   -1.4495   -0.7774 C   0  0  0  0  0  0  0  0  0  0  0  0
   -3.0040   -0.3688   -1.8014 C   0  0  0  0  0  0  0  0  0  0  0  0
   -2.9542   -2.8293   -1.2993 C   0  0  0  0  0  0  0  0  0  0  0  0
   -3.1283   -2.0879    1.2549 H   0  0  0  0  0  0  0  0  0  0  0  0
   -4.5640   -0.1978    1.5045 H   0  0  0  0  0  0  0  0  0  0  0  0
   -3.3940    0.9233    0.7818 H   0  0  0  0  0  0  0  0  0  0  0  0
   -3.2011   -0.5173    3.2225 H   0  0  0  0  0  0  0  0  0  0  0  0
   -0.8675   -2.0581    0.9374 H   0  0  0  0  0  0  0  0  0  0  0  0
    1.0124    5.1108   -0.6594 H   0  0  0  0  0  0  0  0  0  0  0  0
   -1.4010    5.3537   -0.0467 H   0  0  0  0  0  0  0  0  0  0  0  0
   -3.5861    4.5183   -0.7477 H   0  0  0  0  0  0  0  0  0  0  0  0
   -3.0013    2.8152   -0.7289 H   0  0  0  0  0  0  0  0  0  0  0  0
   -2.3333    3.9852   -1.9293 H   0  0  0  0  0  0  0  0  0  0  0  0
   -1.2200    4.3609    2.2377 H   0  0  0  0  0  0  0  0  0  0  0  0
   -2.9242    4.7085    1.7666 H   0  0  0  0  0  0  0  0  0  0  0  0
   -2.3126    3.0121    1.7442 H   0  0  0  0  0  0  0  0  0  0  0  0
    3.6042    1.1130   -1.1635 H   0  0  0  0  0  0  0  0  0  0  0  0
    4.9170   -0.7882   -2.1348 H   0  0  0  0  0  0  0  0  0  0  0  0
    6.0624   -2.9005   -1.6998 H   0  0  0  0  0  0  0  0  0  0  0  0
    6.3663   -6.0038    1.8163 H   0  0  0  0  0  0  0  0  0  0  0  0
    2.7145   -1.2041    1.5353 H   0  0  0  0  0  0  0  0  0  0  0  0
   -4.4934   -1.4615   -0.7064 H   0  0  0  0  0  0  0  0  0  0  0  0
   -3.5009   -0.5814   -2.7719 H   0  0  0  0  0  0  0  0  0  0  0  0
   -3.3502    0.6282   -1.4716 H   0  0  0  0  0  0  0  0  0  0  0  0
   -1.9092   -0.3452   -1.9785 H   0  0  0  0  0  0  0  0  0  0  0  0
   -3.4304   -3.0331   -2.2822 H   0  0  0  0  0  0  0  0  0  0  0  0
   -3.2737   -3.6263   -0.5945 H   0  0  0  0  0  0  0  0  0  0  0  0
   -1.8510   -2.8792   -1.4219 H   0  0  0  0  0  0  0  0  0  0  0  0
  1  2  1  0
  2  3  1  0
  1  4  1  0
  4  5  1  0
  5  6  2  0
  6  7  1  0
  7  8  2  0
  8  9  1  0
  9 10  2  0
 10 11  1  0
 11 12  1  0
 12 13  1  0
 12 14  1  0
  8 15  1  0
 15 16  1  0
 16 17  1  0
 17 18  2  0
 18 19  1  0
 19 20  2  0
 20 21  1  0
 21 22  1  0
 21 23  2  0
 20 24  1  0
 24 25  1  0
 24 26  2  0
 15 27  2  0
  1 28  1  0
 28 29  1  0
 28 30  1  0
 27  5  1  0
 11  7  1  0
 26 17  1  0
  1 31  1  1
  2 32  1  0
  2 33  1  0
  3 34  1  0
  4 35  1  0
 10 36  1  0
 12 37  1  0
 13 38  1  0
 13 39  1  0
 13 40  1  0
 14 41  1  0
 14 42  1  0
 14 43  1  0
 16 44  1  0
 18 45  1  0
 19 46  1  0
 22 47  1  0
 26 48  1  0
 28 49  1  0
 29 50  1  0
 29 51  1  0
 29 52  1  0
 30 53  1  0
 30 54  1  0
 30 55  1  0
M  END
$$$$
