
     RDKit          3D

 63 66  0  0  0  0  0  0  0  0999 V2000
   -6.6340   -0.4424   -0.3207 C   0  0  1  0  0  0  0  0  0  0  0  0
   -6.7071   -1.0082   -1.7589 C   0  0  0  0  0  0  0  0  0  0  0  0
   -5.3690   -0.6856   -2.3959 C   0  0  0  0  0  0  0  0  0  0  0  0
   -4.4449   -0.5689   -1.2847 N   0  0  0  0  0  0  0  0  0  0  0  0
   -5.1294   -0.5341    0.0006 C   0  0  0  0  0  0  0  0  0  0  0  0
   -3.0566   -0.2352   -1.4668 C   0  0  0  0  0  0  0  0  0  0  0  0
   -2.6639    0.1959   -2.5852 O   0  0  0  0  0  0  0  0  0  0  0  0
   -2.0767   -0.3661   -0.3686 C   0  0  0  0  0  0  0  0  0  0  0  0
   -1.1151    0.6354   -0.1645 C   0  0  0  0  0  0  0  0  0  0  0  0
   -0.1776    0.5167    0.8655 C   0  0  0  0  0  0  0  0  0  0  0  0
   -0.1687   -0.6217    1.6906 C   0  0  0  0  0  0  0  0  0  0  0  0
    0.7729   -0.7597    2.7683 N   0  0  0  0  0  0  0  0  0  0  0  0
    2.1354   -0.3145    2.7080 C   0  0  0  0  0  0  0  0  0  0  0  0
    2.6992    0.0435    1.5224 N   0  0  0  0  0  0  0  0  0  0  0  0
    3.9977    0.4361    1.4427 C   0  0  0  0  0  0  0  0  0  0  0  0
    4.5387    0.8494    0.1356 C   0  0  0  0  0  0  0  0  0  0  0  0
    3.9549    1.7929   -0.6757 C   0  0  0  0  0  0  0  0  0  0  0  0
    4.6497    1.8833   -1.8222 N   0  0  0  0  0  0  0  0  0  0  0  0
    5.6496    0.9848   -1.6901 C   0  0  0  0  0  0  0  0  0  0  0  0
    6.5973    0.7173   -2.8187 C   0  0  0  0  0  0  0  0  0  0  0  0
    5.6061    0.3139   -0.5045 N   0  0  0  0  0  0  0  0  0  0  0  0
    6.4349   -0.8158   -0.0294 C   0  0  0  0  0  0  0  0  0  0  0  0
    7.8698   -0.3735    0.2840 C   0  0  0  0  0  0  0  0  0  0  0  0
    6.4018   -2.0010   -1.0012 C   0  0  0  0  0  0  0  0  0  0  0  0
    4.7685    0.4960    2.6110 C   0  0  0  0  0  0  0  0  0  0  0  0
    6.0456    0.9511    2.5939 F   0  0  0  0  0  0  0  0  0  0  0  0
    4.1825    0.1091    3.8155 C   0  0  0  0  0  0  0  0  0  0  0  0
    2.8855   -0.2923    3.8416 N   0  0  0  0  0  0  0  0  0  0  0  0
   -1.1328   -1.6191    1.4874 C   0  0  0  0  0  0  0  0  0  0  0  0
   -2.0707   -1.5002    0.4580 C   0  0  0  0  0  0  0  0  0  0  0  0
   -7.0994    0.9706   -0.1829 N   0  0  0  0  0  0  0  0  0  0  0  0
   -7.3069    1.2982    1.2438 C   0  0  0  0  0  0  0  0  0  0  0  0
   -8.3583    1.2471   -0.9035 C   0  0  0  0  0  0  0  0  0  0  0  0
   -7.2173   -1.1098    0.3564 H   0  0  0  0  0  0  0  0  0  0  0  0
   -7.5524   -0.6655   -2.3846 H   0  0  0  0  0  0  0  0  0  0  0  0
   -6.7990   -2.1153   -1.6893 H   0  0  0  0  0  0  0  0  0  0  0  0
   -5.4261    0.2813   -2.9420 H   0  0  0  0  0  0  0  0  0  0  0  0
   -5.0510   -1.4979   -3.0848 H   0  0  0  0  0  0  0  0  0  0  0  0
   -4.9261   -1.4714    0.5592 H   0  0  0  0  0  0  0  0  0  0  0  0
   -4.7618    0.3300    0.5919 H   0  0  0  0  0  0  0  0  0  0  0  0
   -1.1040    1.5204   -0.7890 H   0  0  0  0  0  0  0  0  0  0  0  0
    0.5220    1.3254    1.0296 H   0  0  0  0  0  0  0  0  0  0  0  0
    0.4758   -1.2919    3.6176 H   0  0  0  0  0  0  0  0  0  0  0  0
    3.0696    2.3740   -0.4524 H   0  0  0  0  0  0  0  0  0  0  0  0
    7.6362    0.6165   -2.4583 H   0  0  0  0  0  0  0  0  0  0  0  0
    6.2846   -0.1963   -3.3638 H   0  0  0  0  0  0  0  0  0  0  0  0
    6.5750    1.5666   -3.5337 H   0  0  0  0  0  0  0  0  0  0  0  0
    6.0093   -1.2008    0.9210 H   0  0  0  0  0  0  0  0  0  0  0  0
    8.3619   -1.1328    0.9286 H   0  0  0  0  0  0  0  0  0  0  0  0
    8.4814   -0.2658   -0.6320 H   0  0  0  0  0  0  0  0  0  0  0  0
    7.8673    0.5952    0.8251 H   0  0  0  0  0  0  0  0  0  0  0  0
    5.3588   -2.1963   -1.3292 H   0  0  0  0  0  0  0  0  0  0  0  0
    7.0385   -1.8211   -1.8898 H   0  0  0  0  0  0  0  0  0  0  0  0
    6.7845   -2.9120   -0.4932 H   0  0  0  0  0  0  0  0  0  0  0  0
    4.7550    0.1368    4.7330 H   0  0  0  0  0  0  0  0  0  0  0  0
   -1.1438   -2.5004    2.1165 H   0  0  0  0  0  0  0  0  0  0  0  0
   -2.7729   -2.3067    0.2923 H   0  0  0  0  0  0  0  0  0  0  0  0
   -8.1696    0.7336    1.6642 H   0  0  0  0  0  0  0  0  0  0  0  0
   -7.4960    2.3871    1.3608 H   0  0  0  0  0  0  0  0  0  0  0  0
   -6.4115    1.0675    1.8551 H   0  0  0  0  0  0  0  0  0  0  0  0
   -8.1490    1.4065   -1.9812 H   0  0  0  0  0  0  0  0  0  0  0  0
   -9.0926    0.4222   -0.7669 H   0  0  0  0  0  0  0  0  0  0  0  0
   -8.8257    2.1953   -0.5565 H   0  0  0  0  0  0  0  0  0  0  0  0
  1  2  1  0
  2  3  1  0
  3  4  1  0
  4  5  1  0
  4  6  1  0
  6  7  2  0
  6  8  1  0
  8  9  2  0
  9 10  1  0
 10 11  2  0
 11 12  1  0
 12 13  1  0
 13 14  2  0
 14 15  1  0
 15 16  1  0
 16 17  2  0
 17 18  1  0
 18 19  2  0
 19 20  1  0
 19 21  1  0
 21 22  1  0
 22 23  1  0
 22 24  1  0
 15 25  2  0
 25 26  1  0
 25 27  1  0
 27 28  2  0
 11 29  1  0
 29 30  2  0
  1 31  1  0
 31 32  1  0
 31 33  1  0
  5  1  1  0
 30  8  1  0
 28 13  1  0
 21 16  1  0
  1 34  1  1
  2 35  1  0
  2 36  1  0
  3 37  1  0
  3 38  1  0
  5 39  1  0
  5 40  1  0
  9 41  1  0
 10 42  1  0
 12 43  1  0
 17 44  1  0
 20 45  1  0
 20 46  1  0
 20 47  1  0
 22 48  1  0
 23 49  1  0
 23 50  1  0
 23 51  1  0
 24 52  1  0
 24 53  1  0
 24 54  1  0
 27 55  1  0
 29 56  1  0
 30 57  1  0
 32 58  1  0
 32 59  1  0
 32 60  1  0
 33 61  1  0
 33 62  1  0
 33 63  1  0
M  END
$$$$
