
     RDKit          3D

 38 41  0  0  0  0  0  0  0  0999 V2000
   -3.4115    0.2971    0.6741 C   0  0  0  0  0  0  0  0  0  0  0  0
   -2.0220    0.1565    0.0355 C   0  0  1  0  0  0  0  0  0  0  0  0
   -2.1539    0.1211   -1.3959 O   0  0  0  0  0  0  0  0  0  0  0  0
   -0.9691    0.0021   -2.0744 O   0  0  0  0  0  0  0  0  0  0  0  0
    0.1873   -0.0764   -1.2297 C   0  0  1  0  0  0  0  0  0  0  0  0
    1.4607   -0.1945   -2.1222 C   0  0  0  0  0  0  0  0  0  0  0  0
    2.8513   -0.4549   -1.4703 C   0  0  0  0  0  0  0  0  0  0  0  0
    3.0677    0.0937   -0.0901 C   0  0  0  0  0  0  0  0  0  0  0  0
    2.4850   -0.5237    1.0115 O   0  0  0  0  0  0  0  0  0  0  0  0
    3.8132    1.0960    0.0788 O   0  0  0  0  0  0  0  0  0  0  0  0
    0.1196    1.2056   -0.3858 C   0  0  0  0  0  0  0  0  0  0  0  0
   -1.0774    1.3054    0.3360 C   0  0  0  0  0  0  0  0  0  0  0  0
   -1.3503    2.4384    1.1188 C   0  0  0  0  0  0  0  0  0  0  0  0
   -0.4333    3.4941    1.1380 C   0  0  0  0  0  0  0  0  0  0  0  0
    0.7198    3.4399    0.3460 C   0  0  0  0  0  0  0  0  0  0  0  0
    0.9840    2.3135   -0.4419 C   0  0  0  0  0  0  0  0  0  0  0  0
   -0.0967   -1.2750   -0.3123 C   0  0  0  0  0  0  0  0  0  0  0  0
   -1.2862   -1.1162    0.4135 C   0  0  0  0  0  0  0  0  0  0  0  0
   -1.7405   -2.1257    1.2767 C   0  0  0  0  0  0  0  0  0  0  0  0
   -1.0200   -3.3201    1.3716 C   0  0  0  0  0  0  0  0  0  0  0  0
    0.1131   -3.5234    0.5754 C   0  0  0  0  0  0  0  0  0  0  0  0
    0.5593   -2.5181   -0.2907 C   0  0  0  0  0  0  0  0  0  0  0  0
   -3.3348    0.3290    1.7819 H   0  0  0  0  0  0  0  0  0  0  0  0
   -3.9021    1.2283    0.3189 H   0  0  0  0  0  0  0  0  0  0  0  0
   -4.0547   -0.5597    0.3807 H   0  0  0  0  0  0  0  0  0  0  0  0
    1.5318    0.7254   -2.7422 H   0  0  0  0  0  0  0  0  0  0  0  0
    1.2855   -1.0127   -2.8545 H   0  0  0  0  0  0  0  0  0  0  0  0
    3.0819   -1.5370   -1.4520 H   0  0  0  0  0  0  0  0  0  0  0  0
    3.6237   -0.0233   -2.1440 H   0  0  0  0  0  0  0  0  0  0  0  0
    2.6279   -0.1619    1.9466 H   0  0  0  0  0  0  0  0  0  0  0  0
   -2.2660    2.5240    1.6872 H   0  0  0  0  0  0  0  0  0  0  0  0
   -0.6359    4.3736    1.7355 H   0  0  0  0  0  0  0  0  0  0  0  0
    1.3994    4.2821    0.3266 H   0  0  0  0  0  0  0  0  0  0  0  0
    1.8459    2.3270   -1.0917 H   0  0  0  0  0  0  0  0  0  0  0  0
   -2.6495   -2.0106    1.8506 H   0  0  0  0  0  0  0  0  0  0  0  0
   -1.3643   -4.1069    2.0303 H   0  0  0  0  0  0  0  0  0  0  0  0
    0.6321   -4.4726    0.6116 H   0  0  0  0  0  0  0  0  0  0  0  0
    1.3796   -2.7405   -0.9482 H   0  0  0  0  0  0  0  0  0  0  0  0
  2  1  1  1
  2  3  1  0
  3  4  1  0
  4  5  1  0
  5  6  1  6
  6  7  1  0
  7  8  1  0
  8  9  1  0
  8 10  2  0
  5 11  1  0
 11 12  2  0
 12 13  1  0
 13 14  2  0
 14 15  1  0
 15 16  2  0
  5 17  1  0
 17 18  2  0
 18 19  1  0
 19 20  2  0
 20 21  1  0
 21 22  2  0
 12  2  1  0
 22 17  1  0
 18  2  1  0
 16 11  1  0
  1 23  1  0
  1 24  1  0
  1 25  1  0
  6 26  1  0
  6 27  1  0
  7 28  1  0
  7 29  1  0
  9 30  1  0
 13 31  1  0
 14 32  1  0
 15 33  1  0
 16 34  1  0
 19 35  1  0
 20 36  1  0
 21 37  1  0
 22 38  1  0
M  END
$$$$
