
     RDKit          3D

 24 26  0  0  0  0  0  0  0  0999 V2000
    1.6149   -0.9459   -1.8714 N   0  0  0  0  0  0  0  0  0  0  0  0
    0.2872   -0.9273   -1.8693 N   0  0  0  0  0  0  0  0  0  0  0  0
   -0.1331   -0.3690   -0.7067 C   0  0  0  0  0  0  0  0  0  0  0  0
    0.9826   -0.0124    0.0366 C   0  0  0  0  0  0  0  0  0  0  0  0
    2.0503   -0.3964   -0.7274 C   0  0  0  0  0  0  0  0  0  0  0  0
    3.3661   -0.1779   -0.3256 C   0  0  0  0  0  0  0  0  0  0  0  0
    3.5726    0.4685    0.9070 C   0  0  0  0  0  0  0  0  0  0  0  0
    2.4722    0.8877    1.6889 C   0  0  0  0  0  0  0  0  0  0  0  0
    1.1543    0.6562    1.2508 C   0  0  0  0  0  0  0  0  0  0  0  0
   -1.5576   -0.1872   -0.3594 C   0  0  0  0  0  0  0  0  0  0  0  0
   -2.0115   -0.3436    0.9598 C   0  0  0  0  0  0  0  0  0  0  0  0
   -3.3690   -0.1790    1.2460 C   0  0  0  0  0  0  0  0  0  0  0  0
   -4.2455    0.1180    0.2506 N   0  0  0  0  0  0  0  0  0  0  0  0
   -3.8377    0.2582   -1.0382 C   0  0  0  0  0  0  0  0  0  0  0  0
   -2.4894    0.1005   -1.3681 C   0  0  0  0  0  0  0  0  0  0  0  0
    2.2013   -1.3181   -2.6510 H   0  0  0  0  0  0  0  0  0  0  0  0
    4.2004   -0.4857   -0.9425 H   0  0  0  0  0  0  0  0  0  0  0  0
    4.5807    0.6573    1.2524 H   0  0  0  0  0  0  0  0  0  0  0  0
    2.6438    1.4003    2.6264 H   0  0  0  0  0  0  0  0  0  0  0  0
    0.3149    1.0103    1.8323 H   0  0  0  0  0  0  0  0  0  0  0  0
   -1.3343   -0.6225    1.7557 H   0  0  0  0  0  0  0  0  0  0  0  0
   -3.7275   -0.2977    2.2598 H   0  0  0  0  0  0  0  0  0  0  0  0
   -4.5608    0.4908   -1.8085 H   0  0  0  0  0  0  0  0  0  0  0  0
   -2.1751    0.2149   -2.3983 H   0  0  0  0  0  0  0  0  0  0  0  0
  1  2  1  0
  2  3  2  0
  3  4  1  0
  4  5  2  0
  5  6  1  0
  6  7  2  0
  7  8  1  0
  8  9  2  0
  3 10  1  0
 10 11  2  0
 11 12  1  0
 12 13  2  0
 13 14  1  0
 14 15  2  0
  5  1  1  0
 15 10  1  0
  9  4  1  0
  1 16  1  0
  6 17  1  0
  7 18  1  0
  8 19  1  0
  9 20  1  0
 11 21  1  0
 12 22  1  0
 14 23  1  0
 15 24  1  0
M  END
$$$$
