
     RDKit          3D

 39 41  0  0  0  0  0  0  0  0999 V2000
   -4.8568    0.7448   -3.6770 N   0  0  0  0  0  0  0  0  0  0  0  0
   -4.3933    1.1876   -2.4004 C   0  0  0  0  0  0  0  0  0  0  0  0
   -4.3525    2.4219   -2.1577 O   0  0  0  0  0  0  0  0  0  0  0  0
   -3.9730    0.2070   -1.3803 C   0  0  0  0  0  0  0  0  0  0  0  0
   -3.4711    0.4271   -0.1082 C   0  0  0  0  0  0  0  0  0  0  0  0
   -3.2095    1.6816    0.5299 N   0  0  0  0  0  0  0  0  0  0  0  0
   -3.2401   -0.7805    0.4404 N   0  0  0  0  0  0  0  0  0  0  0  0
   -2.6454   -1.0848    1.7402 C   0  0  0  0  0  0  0  0  0  0  0  0
   -1.1494   -0.9300    1.6763 C   0  0  0  0  0  0  0  0  0  0  0  0
   -0.3884   -1.8065    0.8912 C   0  0  0  0  0  0  0  0  0  0  0  0
    0.9995   -1.6605    0.8018 C   0  0  0  0  0  0  0  0  0  0  0  0
    1.8995   -2.8201   -0.1721 Cl  0  0  0  0  0  0  0  0  0  0  0  0
    1.6468   -0.6209    1.5023 C   0  0  0  0  0  0  0  0  0  0  0  0
    3.1124   -0.4493    1.4065 C   0  0  0  0  0  0  0  0  0  0  0  0
    3.8064   -0.6178    2.4458 O   0  0  0  0  0  0  0  0  0  0  0  0
    3.7747   -0.0767    0.1297 C   0  0  0  0  0  0  0  0  0  0  0  0
    5.1692   -0.2082   -0.0079 C   0  0  0  0  0  0  0  0  0  0  0  0
    5.8005    0.1422   -1.2052 C   0  0  0  0  0  0  0  0  0  0  0  0
    5.0499    0.6323   -2.2773 C   0  0  0  0  0  0  0  0  0  0  0  0
    5.8445    1.0711   -3.7783 Cl  0  0  0  0  0  0  0  0  0  0  0  0
    3.6656    0.7748   -2.1507 C   0  0  0  0  0  0  0  0  0  0  0  0
    3.0299    0.4258   -0.9555 C   0  0  0  0  0  0  0  0  0  0  0  0
    0.8820    0.2517    2.3030 C   0  0  0  0  0  0  0  0  0  0  0  0
    1.6265    1.5799    3.1882 Cl  0  0  0  0  0  0  0  0  0  0  0  0
   -0.5055    0.0948    2.3836 C   0  0  0  0  0  0  0  0  0  0  0  0
   -3.5705   -1.6994   -0.4534 N   0  0  0  0  0  0  0  0  0  0  0  0
   -4.0226   -1.1298   -1.5630 N   0  0  0  0  0  0  0  0  0  0  0  0
   -5.1558    1.4399   -4.3965 H   0  0  0  0  0  0  0  0  0  0  0  0
   -4.9035   -0.2712   -3.9128 H   0  0  0  0  0  0  0  0  0  0  0  0
   -2.8508    1.7166    1.5081 H   0  0  0  0  0  0  0  0  0  0  0  0
   -3.3655    2.5887    0.0424 H   0  0  0  0  0  0  0  0  0  0  0  0
   -2.8903   -2.1310    2.0253 H   0  0  0  0  0  0  0  0  0  0  0  0
   -3.0896   -0.4291    2.5198 H   0  0  0  0  0  0  0  0  0  0  0  0
   -0.8766   -2.6067    0.3481 H   0  0  0  0  0  0  0  0  0  0  0  0
    5.7718   -0.5895    0.8070 H   0  0  0  0  0  0  0  0  0  0  0  0
    6.8734    0.0316   -1.2981 H   0  0  0  0  0  0  0  0  0  0  0  0
    3.0806    1.1585   -2.9769 H   0  0  0  0  0  0  0  0  0  0  0  0
    1.9581    0.5571   -0.8817 H   0  0  0  0  0  0  0  0  0  0  0  0
   -1.0812    0.7770    2.9967 H   0  0  0  0  0  0  0  0  0  0  0  0
  1  2  1  0
  2  3  2  0
  2  4  1  0
  4  5  2  0
  5  6  1  0
  5  7  1  0
  7  8  1  0
  8  9  1  0
  9 10  2  0
 10 11  1  0
 11 12  1  0
 11 13  2  0
 13 14  1  0
 14 15  2  0
 14 16  1  0
 16 17  2  0
 17 18  1  0
 18 19  2  0
 19 20  1  0
 19 21  1  0
 21 22  2  0
 13 23  1  0
 23 24  1  0
 23 25  2  0
  7 26  1  0
 26 27  2  0
 27  4  1  0
 25  9  1  0
 22 16  1  0
  1 28  1  0
  1 29  1  0
  6 30  1  0
  6 31  1  0
  8 32  1  0
  8 33  1  0
 10 34  1  0
 17 35  1  0
 18 36  1  0
 21 37  1  0
 22 38  1  0
 25 39  1  0
M  END
$$$$
