
     RDKit          3D

 44 47  0  0  0  0  0  0  0  0999 V2000
    4.1905    1.7353    1.9915 N   0  0  0  0  0  0  0  0  0  0  0  0
    3.4404    0.9829    1.0336 C   0  0  0  0  0  0  0  0  0  0  0  0
    2.1455    1.1201    1.0175 N   0  0  0  0  0  0  0  0  0  0  0  0
    1.2429    0.4471    0.0709 C   0  0  0  0  0  0  0  0  0  0  0  0
    0.0551    1.4051   -0.2277 C   0  0  0  0  0  0  0  0  0  0  0  0
   -1.2696    0.6586   -0.4058 C   0  0  0  0  0  0  0  0  0  0  0  0
   -1.5697   -0.1180    0.8073 N   0  0  0  0  0  0  0  0  0  0  0  0
   -0.4731   -0.7346    1.5679 C   0  0  0  0  0  0  0  0  0  0  0  0
    0.7746   -0.8973    0.6929 C   0  0  0  0  0  0  0  0  0  0  0  0
   -2.9045   -0.1544    1.3487 C   0  0  0  0  0  0  0  0  0  0  0  0
   -3.0633   -0.1724    2.6001 O   0  0  0  0  0  0  0  0  0  0  0  0
   -4.0989   -0.1751    0.4738 C   0  0  0  0  0  0  0  0  0  0  0  0
   -5.2937    0.4330    0.8887 C   0  0  0  0  0  0  0  0  0  0  0  0
   -6.4203    0.4013    0.0647 C   0  0  0  0  0  0  0  0  0  0  0  0
   -6.3473   -0.2525   -1.1688 C   0  0  0  0  0  0  0  0  0  0  0  0
   -5.1899   -0.8547   -1.5497 N   0  0  0  0  0  0  0  0  0  0  0  0
   -4.0788   -0.8341   -0.7661 C   0  0  0  0  0  0  0  0  0  0  0  0
   -7.4928   -0.3004   -2.0355 C   0  0  0  0  0  0  0  0  0  0  0  0
   -8.4152   -0.3390   -2.7334 N   0  0  0  0  0  0  0  0  0  0  0  0
    1.9582    0.1566   -1.1798 N   0  0  0  0  0  0  0  0  0  0  0  0
    3.3507   -0.1827   -1.1463 C   0  0  0  0  0  0  0  0  0  0  0  0
    3.9445   -0.8829   -2.2082 C   0  0  0  0  0  0  0  0  0  0  0  0
    3.2225   -1.2109   -3.3091 F   0  0  0  0  0  0  0  0  0  0  0  0
    5.2835   -1.2693   -2.1264 C   0  0  0  0  0  0  0  0  0  0  0  0
    6.0287   -0.9749   -0.9835 C   0  0  0  0  0  0  0  0  0  0  0  0
    5.4504   -0.2665    0.0747 C   0  0  0  0  0  0  0  0  0  0  0  0
    6.1897   -0.0624    1.1926 F   0  0  0  0  0  0  0  0  0  0  0  0
    4.1103    0.1672   -0.0157 C   0  0  0  0  0  0  0  0  0  0  0  0
    3.6955    2.2244    2.7704 H   0  0  0  0  0  0  0  0  0  0  0  0
    5.2010    1.9503    1.8533 H   0  0  0  0  0  0  0  0  0  0  0  0
    0.2624    2.0159   -1.1338 H   0  0  0  0  0  0  0  0  0  0  0  0
   -0.0766    2.1207    0.6149 H   0  0  0  0  0  0  0  0  0  0  0  0
   -2.0709    1.4045   -0.6015 H   0  0  0  0  0  0  0  0  0  0  0  0
   -1.2005   -0.0223   -1.2808 H   0  0  0  0  0  0  0  0  0  0  0  0
   -0.7863   -1.7398    1.9255 H   0  0  0  0  0  0  0  0  0  0  0  0
   -0.2338   -0.1046    2.4519 H   0  0  0  0  0  0  0  0  0  0  0  0
    1.5920   -1.3540    1.2930 H   0  0  0  0  0  0  0  0  0  0  0  0
    0.5282   -1.6198   -0.1172 H   0  0  0  0  0  0  0  0  0  0  0  0
   -5.3511    0.9424    1.8428 H   0  0  0  0  0  0  0  0  0  0  0  0
   -7.3374    0.8805    0.3855 H   0  0  0  0  0  0  0  0  0  0  0  0
   -3.1910   -1.3522   -1.1023 H   0  0  0  0  0  0  0  0  0  0  0  0
    1.4012   -0.0479   -2.0410 H   0  0  0  0  0  0  0  0  0  0  0  0
    5.7397   -1.8177   -2.9406 H   0  0  0  0  0  0  0  0  0  0  0  0
    7.0572   -1.3055   -0.9141 H   0  0  0  0  0  0  0  0  0  0  0  0
  1  2  1  0
  2  3  2  0
  3  4  1  0
  4  5  1  0
  5  6  1  0
  6  7  1  0
  7  8  1  0
  8  9  1  0
  7 10  1  0
 10 11  2  0
 10 12  1  0
 12 13  2  0
 13 14  1  0
 14 15  2  0
 15 16  1  0
 16 17  2  0
 15 18  1  0
 18 19  3  0
  4 20  1  0
 20 21  1  0
 21 22  2  0
 22 23  1  0
 22 24  1  0
 24 25  2  0
 25 26  1  0
 26 27  1  0
 26 28  2  0
 28  2  1  0
  9  4  1  0
 17 12  1  0
 28 21  1  0
  1 29  1  0
  1 30  1  0
  5 31  1  0
  5 32  1  0
  6 33  1  0
  6 34  1  0
  8 35  1  0
  8 36  1  0
  9 37  1  0
  9 38  1  0
 13 39  1  0
 14 40  1  0
 17 41  1  0
 20 42  1  0
 24 43  1  0
 25 44  1  0
M  END
$$$$
