
     RDKit          3D

 35 36  0  0  0  0  0  0  0  0999 V2000
   -2.6487   -2.3232    1.4409 C   0  0  0  0  0  0  0  0  0  0  0  0
   -1.1481   -2.4460    1.1691 C   0  0  0  0  0  0  0  0  0  0  0  0
   -0.4297   -1.1876    1.4234 N   0  0  0  0  0  0  0  0  0  0  0  0
   -0.6941   -0.1372    0.4142 C   0  0  1  0  0  0  0  0  0  0  0  0
   -1.5314    1.0191    1.0356 C   0  0  0  0  0  0  0  0  0  0  0  0
   -1.8505    2.1768    0.0648 C   0  0  2  0  0  0  0  0  0  0  0  0
   -2.7124    1.7255   -1.1202 C   0  0  0  0  0  0  0  0  0  0  0  0
   -0.3280    2.9329   -0.4939 S   0  0  0  0  0  6  0  0  0  0  0  0
    0.1315    3.9511    0.5109 O   0  0  0  0  0  0  0  0  0  0  0  0
   -0.5135    3.5851   -1.8355 O   0  0  0  0  0  0  0  0  0  0  0  0
    0.8428    1.6450   -0.6023 C   0  0  0  0  0  0  0  0  0  0  0  0
    0.6259    0.3486   -0.1485 C   0  0  0  0  0  0  0  0  0  0  0  0
    1.7204   -0.4938   -0.4061 C   0  0  0  0  0  0  0  0  0  0  0  0
    2.7832    0.1645   -1.0110 C   0  0  0  0  0  0  0  0  0  0  0  0
    2.3776    1.7757   -1.2723 S   0  0  0  0  0  0  0  0  0  0  0  0
    4.2985   -0.5769   -1.4855 S   0  0  0  0  0  6  0  0  0  0  0  0
    4.6998   -1.8372   -0.3719 N   0  0  0  0  0  0  0  0  0  0  0  0
    4.1656   -1.1490   -2.8683 O   0  0  0  0  0  0  0  0  0  0  0  0
    5.3893    0.4571   -1.4727 O   0  0  0  0  0  0  0  0  0  0  0  0
   -3.1261   -1.6437    0.7049 H   0  0  0  0  0  0  0  0  0  0  0  0
   -3.1235   -3.3226    1.3486 H   0  0  0  0  0  0  0  0  0  0  0  0
   -2.8262   -1.9399    2.4679 H   0  0  0  0  0  0  0  0  0  0  0  0
   -0.9758   -2.7887    0.1251 H   0  0  0  0  0  0  0  0  0  0  0  0
   -0.7327   -3.2287    1.8394 H   0  0  0  0  0  0  0  0  0  0  0  0
   -0.6175   -0.8617    2.4010 H   0  0  0  0  0  0  0  0  0  0  0  0
   -1.2629   -0.5541   -0.4454 H   0  0  0  0  0  0  0  0  0  0  0  0
   -2.4876    0.6106    1.4266 H   0  0  0  0  0  0  0  0  0  0  0  0
   -0.9826    1.4373    1.9086 H   0  0  0  0  0  0  0  0  0  0  0  0
   -2.4256    2.9451    0.6262 H   0  0  0  0  0  0  0  0  0  0  0  0
   -3.0789    2.6136   -1.6773 H   0  0  0  0  0  0  0  0  0  0  0  0
   -3.5956    1.1560   -0.7604 H   0  0  0  0  0  0  0  0  0  0  0  0
   -2.1308    1.0914   -1.8216 H   0  0  0  0  0  0  0  0  0  0  0  0
    1.7349   -1.5504   -0.1720 H   0  0  0  0  0  0  0  0  0  0  0  0
    5.6379   -2.2035   -0.6493 H   0  0  0  0  0  0  0  0  0  0  0  0
    4.8149   -1.3913    0.5658 H   0  0  0  0  0  0  0  0  0  0  0  0
  1  2  1  0
  2  3  1  0
  3  4  1  0
  4  5  1  0
  5  6  1  0
  6  7  1  0
  6  8  1  0
  8  9  2  0
  8 10  2  0
  8 11  1  0
 11 12  2  0
 12 13  1  0
 13 14  2  0
 14 15  1  0
 14 16  1  0
 16 17  1  0
 16 18  2  0
 16 19  2  0
 12  4  1  0
 15 11  1  0
  1 20  1  0
  1 21  1  0
  1 22  1  0
  2 23  1  0
  2 24  1  0
  3 25  1  0
  4 26  1  6
  5 27  1  0
  5 28  1  0
  6 29  1  1
  7 30  1  0
  7 31  1  0
  7 32  1  0
 13 33  1  0
 17 34  1  0
 17 35  1  0
M  END
$$$$
