
     RDKit          3D

 61 63  0  0  0  0  0  0  0  0999 V2000
    2.8793    5.7826   -0.3297 C   0  0  0  0  0  0  0  0  0  0  0  0
    3.7788    4.6037    0.0233 C   0  0  0  0  0  0  0  0  0  0  0  0
    3.0062    3.5100    0.5136 O   0  0  0  0  0  0  0  0  0  0  0  0
    2.2376    2.6785   -0.3096 C   0  0  0  0  0  0  0  0  0  0  0  0
    2.2522    2.8302   -1.5627 O   0  0  0  0  0  0  0  0  0  0  0  0
    1.4435    1.5607    0.3179 C   0  0  2  0  0  0  0  0  0  0  0  0
    2.3372    0.3096    0.5193 C   0  0  0  0  0  0  0  0  0  0  0  0
    2.7576   -0.3858   -0.7863 C   0  0  0  0  0  0  0  0  0  0  0  0
    3.6610   -1.5523   -0.4897 C   0  0  0  0  0  0  0  0  0  0  0  0
    3.1155   -2.8183   -0.2176 C   0  0  0  0  0  0  0  0  0  0  0  0
    3.9535   -3.8941    0.0917 C   0  0  0  0  0  0  0  0  0  0  0  0
    5.3383   -3.7117    0.1414 C   0  0  0  0  0  0  0  0  0  0  0  0
    5.8873   -2.4520   -0.1139 C   0  0  0  0  0  0  0  0  0  0  0  0
    5.0530   -1.3733   -0.4235 C   0  0  0  0  0  0  0  0  0  0  0  0
    0.2044    1.3071   -0.4568 N   0  0  0  0  0  0  0  0  0  0  0  0
   -0.6935    0.2452    0.0661 C   0  0  1  0  0  0  0  0  0  0  0  0
   -1.1627    0.5643    1.5156 C   0  0  0  0  0  0  0  0  0  0  0  0
   -2.0895   -0.5100    2.1168 C   0  0  0  0  0  0  0  0  0  0  0  0
   -3.5794   -0.2295    1.8604 C   0  0  0  0  0  0  0  0  0  0  0  0
   -3.8143    0.3165    0.5119 N   0  0  0  0  0  0  0  0  0  0  0  0
   -5.2475    0.4385    0.1743 C   0  0  0  0  0  0  0  0  0  0  0  0
   -5.9037   -0.9083   -0.1763 C   0  0  0  0  0  0  0  0  0  0  0  0
   -5.1185   -1.6283   -1.2717 C   0  0  0  0  0  0  0  0  0  0  0  0
   -3.6501   -1.7716   -0.8588 C   0  0  2  0  0  0  0  0  0  0  0  0
   -3.1306   -0.4453   -0.4612 N   0  0  0  0  0  0  0  0  0  0  0  0
   -1.8563    0.0501   -0.9025 C   0  0  0  0  0  0  0  0  0  0  0  0
   -1.6811    0.2505   -2.1353 O   0  0  0  0  0  0  0  0  0  0  0  0
   -2.8429   -2.4217   -1.9561 C   0  0  0  0  0  0  0  0  0  0  0  0
   -3.0702   -2.0959   -3.2910 O   0  0  0  0  0  0  0  0  0  0  0  0
   -1.9243   -3.2320   -1.6595 O   0  0  0  0  0  0  0  0  0  0  0  0
    3.5016    6.6425   -0.6554 H   0  0  0  0  0  0  0  0  0  0  0  0
    2.2845    6.0843    0.5583 H   0  0  0  0  0  0  0  0  0  0  0  0
    2.1888    5.5098   -1.1549 H   0  0  0  0  0  0  0  0  0  0  0  0
    4.4864    4.9208    0.8181 H   0  0  0  0  0  0  0  0  0  0  0  0
    4.3733    4.2919   -0.8629 H   0  0  0  0  0  0  0  0  0  0  0  0
    1.1671    1.9446    1.3206 H   0  0  0  0  0  0  0  0  0  0  0  0
    1.8173   -0.4189    1.1770 H   0  0  0  0  0  0  0  0  0  0  0  0
    3.2532    0.6185    1.0711 H   0  0  0  0  0  0  0  0  0  0  0  0
    1.8654   -0.7527   -1.3358 H   0  0  0  0  0  0  0  0  0  0  0  0
    3.2841    0.3332   -1.4497 H   0  0  0  0  0  0  0  0  0  0  0  0
    2.0433   -2.9701   -0.2431 H   0  0  0  0  0  0  0  0  0  0  0  0
    3.5290   -4.8685    0.2966 H   0  0  0  0  0  0  0  0  0  0  0  0
    5.9855   -4.5452    0.3823 H   0  0  0  0  0  0  0  0  0  0  0  0
    6.9594   -2.3104   -0.0682 H   0  0  0  0  0  0  0  0  0  0  0  0
    5.4901   -0.4000   -0.6095 H   0  0  0  0  0  0  0  0  0  0  0  0
    0.4824    1.0604   -1.4350 H   0  0  0  0  0  0  0  0  0  0  0  0
   -0.1524   -0.7245    0.0819 H   0  0  0  0  0  0  0  0  0  0  0  0
   -0.2780    0.5930    2.1823 H   0  0  0  0  0  0  0  0  0  0  0  0
   -1.6385    1.5689    1.5567 H   0  0  0  0  0  0  0  0  0  0  0  0
   -1.9350   -0.5528    3.2176 H   0  0  0  0  0  0  0  0  0  0  0  0
   -1.8188   -1.5134    1.7208 H   0  0  0  0  0  0  0  0  0  0  0  0
   -3.9294    0.5146    2.6089 H   0  0  0  0  0  0  0  0  0  0  0  0
   -4.1494   -1.1675    2.0277 H   0  0  0  0  0  0  0  0  0  0  0  0
   -5.3471    1.1224   -0.6965 H   0  0  0  0  0  0  0  0  0  0  0  0
   -5.8009    0.9106    1.0155 H   0  0  0  0  0  0  0  0  0  0  0  0
   -6.9401   -0.7249   -0.5331 H   0  0  0  0  0  0  0  0  0  0  0  0
   -5.9749   -1.5534    0.7247 H   0  0  0  0  0  0  0  0  0  0  0  0
   -5.1970   -1.0405   -2.2132 H   0  0  0  0  0  0  0  0  0  0  0  0
   -5.5644   -2.6319   -1.4464 H   0  0  0  0  0  0  0  0  0  0  0  0
   -3.6089   -2.4443    0.0262 H   0  0  0  0  0  0  0  0  0  0  0  0
   -2.5174   -2.5144   -4.0293 H   0  0  0  0  0  0  0  0  0  0  0  0
  1  2  1  0
  2  3  1  0
  3  4  1  0
  4  5  2  0
  4  6  1  0
  6  7  1  0
  7  8  1  0
  8  9  1  0
  9 10  2  0
 10 11  1  0
 11 12  2  0
 12 13  1  0
 13 14  2  0
  6 15  1  0
 15 16  1  0
 16 17  1  0
 17 18  1  0
 18 19  1  0
 19 20  1  0
 20 21  1  0
 21 22  1  0
 22 23  1  0
 23 24  1  0
 24 25  1  0
 25 26  1  0
 26 27  2  0
 24 28  1  0
 28 29  1  0
 28 30  2  0
 14  9  1  0
 26 16  1  0
 25 20  1  0
  1 31  1  0
  1 32  1  0
  1 33  1  0
  2 34  1  0
  2 35  1  0
  6 36  1  1
  7 37  1  0
  7 38  1  0
  8 39  1  0
  8 40  1  0
 10 41  1  0
 11 42  1  0
 12 43  1  0
 13 44  1  0
 14 45  1  0
 15 46  1  0
 16 47  1  1
 17 48  1  0
 17 49  1  0
 18 50  1  0
 18 51  1  0
 19 52  1  0
 19 53  1  0
 21 54  1  0
 21 55  1  0
 22 56  1  0
 22 57  1  0
 23 58  1  0
 23 59  1  0
 24 60  1  1
 29 61  1  0
M  END
$$$$
