
     RDKit          3D

 53 55  0  0  0  0  0  0  0  0999 V2000
   -2.0045   -0.2786    0.6958 C   0  0  2  0  0  0  0  0  0  0  0  0
   -2.2154   -1.7504    0.4062 C   0  0  0  0  0  0  0  0  0  0  0  0
   -3.4647   -2.2004    0.1851 C   0  0  0  0  0  0  0  0  0  0  0  0
   -3.6888   -3.6361   -0.2006 C   0  0  0  0  0  0  0  0  0  0  0  0
   -4.6309   -1.2397    0.3196 C   0  0  0  0  0  0  0  0  0  0  0  0
   -4.3359    0.1577   -0.2841 C   0  0  0  0  0  0  0  0  0  0  0  0
   -2.8169    0.4957   -0.3756 C   0  0  1  0  0  0  0  0  0  0  0  0
   -2.4641    2.0124   -0.3886 C   0  0  0  0  0  0  0  0  0  0  0  0
   -3.1627    2.7227   -1.5602 C   0  0  0  0  0  0  0  0  0  0  0  0
   -2.8245    2.7348    0.9280 C   0  0  0  0  0  0  0  0  0  0  0  0
   -1.0541    2.1299   -0.5927 O   0  0  0  0  0  0  0  0  0  0  0  0
   -0.1227    1.2977    0.0417 C   0  0  0  0  0  0  0  0  0  0  0  0
   -0.5345    0.1222    0.7094 C   0  0  0  0  0  0  0  0  0  0  0  0
    0.4142   -0.5912    1.4756 C   0  0  0  0  0  0  0  0  0  0  0  0
    0.0163   -1.6662    2.2707 O   0  0  0  0  0  0  0  0  0  0  0  0
    1.7633   -0.2120    1.4521 C   0  0  0  0  0  0  0  0  0  0  0  0
    2.1795    0.9013    0.7096 C   0  0  0  0  0  0  0  0  0  0  0  0
    3.6367    1.2863    0.6566 C   0  0  0  0  0  0  0  0  0  0  0  0
    4.2839    0.9232   -0.6907 C   0  0  0  0  0  0  0  0  0  0  0  0
    4.2805   -0.5845   -1.0140 C   0  0  0  0  0  0  0  0  0  0  0  0
    5.0860   -1.4571   -0.0351 C   0  0  0  0  0  0  0  0  0  0  0  0
    6.5768   -1.1219   -0.0233 C   0  0  0  0  0  0  0  0  0  0  0  0
    1.2270    1.6570    0.0143 C   0  0  0  0  0  0  0  0  0  0  0  0
   -2.4221   -0.0631    1.7038 H   0  0  0  0  0  0  0  0  0  0  0  0
   -1.3701   -2.4198    0.2711 H   0  0  0  0  0  0  0  0  0  0  0  0
   -3.1691   -3.8527   -1.1577 H   0  0  0  0  0  0  0  0  0  0  0  0
   -4.7697   -3.8539   -0.3283 H   0  0  0  0  0  0  0  0  0  0  0  0
   -3.2884   -4.3041    0.5911 H   0  0  0  0  0  0  0  0  0  0  0  0
   -4.8422   -1.1203    1.4046 H   0  0  0  0  0  0  0  0  0  0  0  0
   -5.5476   -1.6583   -0.1484 H   0  0  0  0  0  0  0  0  0  0  0  0
   -4.7692    0.2026   -1.3074 H   0  0  0  0  0  0  0  0  0  0  0  0
   -4.8790    0.9088    0.3227 H   0  0  0  0  0  0  0  0  0  0  0  0
   -2.4770    0.1033   -1.3647 H   0  0  0  0  0  0  0  0  0  0  0  0
   -2.8229    3.7787   -1.6266 H   0  0  0  0  0  0  0  0  0  0  0  0
   -2.9151    2.2219   -2.5205 H   0  0  0  0  0  0  0  0  0  0  0  0
   -4.2658    2.7198   -1.4300 H   0  0  0  0  0  0  0  0  0  0  0  0
   -2.3304    2.2589    1.7992 H   0  0  0  0  0  0  0  0  0  0  0  0
   -3.9189    2.7561    1.1029 H   0  0  0  0  0  0  0  0  0  0  0  0
   -2.4714    3.7875    0.8859 H   0  0  0  0  0  0  0  0  0  0  0  0
    0.6797   -2.1895    2.8301 H   0  0  0  0  0  0  0  0  0  0  0  0
    2.4856   -0.7832    2.0216 H   0  0  0  0  0  0  0  0  0  0  0  0
    4.2029    0.8244    1.4928 H   0  0  0  0  0  0  0  0  0  0  0  0
    3.7200    2.3855    0.8014 H   0  0  0  0  0  0  0  0  0  0  0  0
    3.7406    1.4543   -1.5025 H   0  0  0  0  0  0  0  0  0  0  0  0
    5.3241    1.3102   -0.7095 H   0  0  0  0  0  0  0  0  0  0  0  0
    3.2326   -0.9531   -1.0418 H   0  0  0  0  0  0  0  0  0  0  0  0
    4.6918   -0.7246   -2.0374 H   0  0  0  0  0  0  0  0  0  0  0  0
    4.9721   -2.5179   -0.3467 H   0  0  0  0  0  0  0  0  0  0  0  0
    4.6775   -1.3772    0.9929 H   0  0  0  0  0  0  0  0  0  0  0  0
    7.1212   -1.8835    0.5738 H   0  0  0  0  0  0  0  0  0  0  0  0
    6.7514   -0.1307    0.4442 H   0  0  0  0  0  0  0  0  0  0  0  0
    6.9851   -1.1242   -1.0562 H   0  0  0  0  0  0  0  0  0  0  0  0
    1.5300    2.5414   -0.5330 H   0  0  0  0  0  0  0  0  0  0  0  0
  1  2  1  0
  2  3  2  0
  3  4  1  0
  3  5  1  0
  5  6  1  0
  6  7  1  0
  7  8  1  0
  8  9  1  0
  8 10  1  0
  8 11  1  0
 11 12  1  0
 12 13  2  0
 13 14  1  0
 14 15  1  0
 14 16  2  0
 16 17  1  0
 17 18  1  0
 18 19  1  0
 19 20  1  0
 20 21  1  0
 21 22  1  0
 17 23  2  0
  7  1  1  0
 23 12  1  0
 13  1  1  0
  1 24  1  1
  2 25  1  0
  4 26  1  0
  4 27  1  0
  4 28  1  0
  5 29  1  0
  5 30  1  0
  6 31  1  0
  6 32  1  0
  7 33  1  6
  9 34  1  0
  9 35  1  0
  9 36  1  0
 10 37  1  0
 10 38  1  0
 10 39  1  0
 15 40  1  0
 16 41  1  0
 18 42  1  0
 18 43  1  0
 19 44  1  0
 19 45  1  0
 20 46  1  0
 20 47  1  0
 21 48  1  0
 21 49  1  0
 22 50  1  0
 22 51  1  0
 22 52  1  0
 23 53  1  0
M  END
$$$$
