
     RDKit          3D

 60 63  0  0  0  0  0  0  0  0999 V2000
   -3.1385    2.2999   -0.4031 C   0  0  0  0  0  0  0  0  0  0  0  0
   -2.7214    1.2270    0.6256 C   0  0  2  0  0  0  0  0  0  0  0  0
   -1.1961    1.3441    0.9341 C   0  0  0  0  0  0  0  0  0  0  0  0
   -0.4462    0.1376    0.5235 N   0  0  0  0  0  0  0  0  0  0  0  0
   -0.7491   -0.2236   -0.8758 C   0  0  0  0  0  0  0  0  0  0  0  0
   -2.2340   -0.6160   -1.0397 C   0  0  0  0  0  0  0  0  0  0  0  0
   -3.1303   -0.2320    0.1847 C   0  0  1  0  0  0  0  0  0  0  0  0
   -2.8801   -1.2313    1.3098 C   0  0  0  0  0  0  0  0  0  0  0  0
   -2.8457   -2.5960    1.0330 O   0  0  0  0  0  0  0  0  0  0  0  0
   -2.7714   -0.8460    2.5062 O   0  0  0  0  0  0  0  0  0  0  0  0
   -4.6405   -0.3233   -0.1265 C   0  0  0  0  0  0  0  0  0  0  0  0
   -5.5796    0.1274    0.8309 C   0  0  0  0  0  0  0  0  0  0  0  0
   -6.9533    0.0375    0.5922 C   0  0  0  0  0  0  0  0  0  0  0  0
   -7.4232   -0.5249   -0.5929 C   0  0  0  0  0  0  0  0  0  0  0  0
   -6.5202   -1.0132   -1.5356 C   0  0  0  0  0  0  0  0  0  0  0  0
   -5.1440   -0.9276   -1.3049 C   0  0  0  0  0  0  0  0  0  0  0  0
    1.0010    0.2323    0.8594 C   0  0  1  0  0  0  0  0  0  0  0  0
    1.6019   -1.1764    1.0757 C   0  0  0  0  0  0  0  0  0  0  0  0
    3.1335   -1.1194    1.0583 C   0  0  0  0  0  0  0  0  0  0  0  0
    3.6923   -0.6939   -0.3338 C   0  0  2  0  0  0  0  0  0  0  0  0
    2.6987    0.2641   -1.0804 C   0  0  0  0  0  0  0  0  0  0  0  0
    1.8410    1.1082   -0.1213 C   0  0  0  0  0  0  0  0  0  0  0  0
    3.8200   -1.9043   -1.1809 C   0  0  0  0  0  0  0  0  0  0  0  0
    3.9185   -2.8493   -1.8420 N   0  0  0  0  0  0  0  0  0  0  0  0
    5.0995   -0.0999   -0.1253 C   0  0  0  0  0  0  0  0  0  0  0  0
    5.3621    1.2896   -0.1850 C   0  0  0  0  0  0  0  0  0  0  0  0
    6.6443    1.7886    0.0641 C   0  0  0  0  0  0  0  0  0  0  0  0
    7.6839    0.9222    0.4004 C   0  0  0  0  0  0  0  0  0  0  0  0
    8.9243    1.4122    0.6446 F   0  0  0  0  0  0  0  0  0  0  0  0
    7.4419   -0.4469    0.5001 C   0  0  0  0  0  0  0  0  0  0  0  0
    6.1636   -0.9532    0.2522 C   0  0  0  0  0  0  0  0  0  0  0  0
   -4.2285    2.2610   -0.6057 H   0  0  0  0  0  0  0  0  0  0  0  0
   -2.9136    3.3117   -0.0030 H   0  0  0  0  0  0  0  0  0  0  0  0
   -2.5897    2.1773   -1.3595 H   0  0  0  0  0  0  0  0  0  0  0  0
   -3.2571    1.4901    1.5630 H   0  0  0  0  0  0  0  0  0  0  0  0
   -0.7574    2.2512    0.4622 H   0  0  0  0  0  0  0  0  0  0  0  0
   -1.0816    1.4780    2.0328 H   0  0  0  0  0  0  0  0  0  0  0  0
   -0.1334   -1.0834   -1.2063 H   0  0  0  0  0  0  0  0  0  0  0  0
   -0.5233    0.6267   -1.5560 H   0  0  0  0  0  0  0  0  0  0  0  0
   -2.6063   -0.1045   -1.9539 H   0  0  0  0  0  0  0  0  0  0  0  0
   -2.3017   -1.7068   -1.2468 H   0  0  0  0  0  0  0  0  0  0  0  0
   -2.7040   -3.2734    1.7726 H   0  0  0  0  0  0  0  0  0  0  0  0
   -5.2563    0.5386    1.7767 H   0  0  0  0  0  0  0  0  0  0  0  0
   -7.6551    0.3967    1.3339 H   0  0  0  0  0  0  0  0  0  0  0  0
   -8.4878   -0.5962   -0.7743 H   0  0  0  0  0  0  0  0  0  0  0  0
   -6.8874   -1.4688   -2.4463 H   0  0  0  0  0  0  0  0  0  0  0  0
   -4.4933   -1.3496   -2.0556 H   0  0  0  0  0  0  0  0  0  0  0  0
    1.0911    0.7264    1.8552 H   0  0  0  0  0  0  0  0  0  0  0  0
    1.2637   -1.8941    0.3010 H   0  0  0  0  0  0  0  0  0  0  0  0
    1.2599   -1.5733    2.0565 H   0  0  0  0  0  0  0  0  0  0  0  0
    3.4566   -0.3936    1.8390 H   0  0  0  0  0  0  0  0  0  0  0  0
    3.5408   -2.1094    1.3641 H   0  0  0  0  0  0  0  0  0  0  0  0
    1.9931   -0.3188   -1.7116 H   0  0  0  0  0  0  0  0  0  0  0  0
    3.2303    0.9182   -1.8031 H   0  0  0  0  0  0  0  0  0  0  0  0
    1.2048    1.8025   -0.7058 H   0  0  0  0  0  0  0  0  0  0  0  0
    2.5148    1.7557    0.4785 H   0  0  0  0  0  0  0  0  0  0  0  0
    4.5931    2.0081   -0.4184 H   0  0  0  0  0  0  0  0  0  0  0  0
    6.8288    2.8536    0.0033 H   0  0  0  0  0  0  0  0  0  0  0  0
    8.2436   -1.1191    0.7779 H   0  0  0  0  0  0  0  0  0  0  0  0
    6.0033   -2.0184    0.3620 H   0  0  0  0  0  0  0  0  0  0  0  0
  1  2  1  0
  2  3  1  0
  3  4  1  0
  4  5  1  0
  5  6  1  0
  6  7  1  0
  7  8  1  1
  8  9  1  0
  8 10  2  0
  7 11  1  0
 11 12  2  0
 12 13  1  0
 13 14  2  0
 14 15  1  0
 15 16  2  0
  4 17  1  0
 17 18  1  0
 18 19  1  0
 19 20  1  0
 20 21  1  0
 21 22  1  0
 20 23  1  6
 23 24  3  0
 20 25  1  0
 25 26  2  0
 26 27  1  0
 27 28  2  0
 28 29  1  0
 28 30  1  0
 30 31  2  0
  7  2  1  0
 16 11  1  0
 22 17  1  0
 31 25  1  0
  1 32  1  0
  1 33  1  0
  1 34  1  0
  2 35  1  1
  3 36  1  0
  3 37  1  0
  5 38  1  0
  5 39  1  0
  6 40  1  0
  6 41  1  0
  9 42  1  0
 12 43  1  0
 13 44  1  0
 14 45  1  0
 15 46  1  0
 16 47  1  0
 17 48  1  1
 18 49  1  0
 18 50  1  0
 19 51  1  0
 19 52  1  0
 21 53  1  0
 21 54  1  0
 22 55  1  0
 22 56  1  0
 26 57  1  0
 27 58  1  0
 30 59  1  0
 31 60  1  0
M  END
$$$$
