
     RDKit          3D

 47 48  0  0  0  0  0  0  0  0999 V2000
   -4.2968   -2.2688   -0.9906 O   0  0  0  0  0  0  0  0  0  0  0  0
   -3.0758   -1.6349   -0.7237 C   0  0  0  0  0  0  0  0  0  0  0  0
   -2.6694   -1.8780    0.7440 C   0  0  1  0  0  0  0  0  0  0  0  0
   -1.1997   -1.4764    0.9964 C   0  0  0  0  0  0  0  0  0  0  0  0
   -0.9551    0.0526    1.0110 C   0  0  1  0  0  0  0  0  0  0  0  0
   -0.4707    0.6682   -0.6518 S   0  0  0  0  0  0  0  0  0  0  0  0
    1.2843    0.3022   -0.4732 C   0  0  0  0  0  0  0  0  0  0  0  0
    2.0688    1.1217    0.1550 N   0  0  0  0  0  0  0  0  0  0  0  0
    1.5933    2.2859    0.7132 O   0  0  0  0  0  0  0  0  0  0  0  0
    2.6464    3.3208    1.5584 S   0  0  0  0  0  6  0  0  0  0  0  0
    1.7871    4.6442    2.1359 O   0  0  0  0  0  0  0  0  0  0  0  0
    3.7275    3.7967    0.6300 O   0  0  0  0  0  0  0  0  0  0  0  0
    3.2663    2.5817    2.7104 O   0  0  0  0  0  0  0  0  0  0  0  0
    1.8488   -0.9482   -1.0761 C   0  0  0  0  0  0  0  0  0  0  0  0
    2.8303   -0.6097   -2.1651 C   0  0  0  0  0  0  0  0  0  0  0  0
    2.3752   -0.3307   -3.4648 C   0  0  0  0  0  0  0  0  0  0  0  0
    3.2835    0.0178   -4.4692 C   0  0  0  0  0  0  0  0  0  0  0  0
    4.6488    0.0993   -4.1815 C   0  0  0  0  0  0  0  0  0  0  0  0
    5.1078   -0.1642   -2.8879 C   0  0  0  0  0  0  0  0  0  0  0  0
    4.2029   -0.5133   -1.8805 C   0  0  0  0  0  0  0  0  0  0  0  0
   -2.1791    0.8577    1.5219 C   0  0  2  0  0  0  0  0  0  0  0  0
   -1.7588    2.0569    2.1262 O   0  0  0  0  0  0  0  0  0  0  0  0
   -3.0466    0.0218    2.4861 C   0  0  1  0  0  0  0  0  0  0  0  0
   -4.0906    0.8104    2.9997 O   0  0  0  0  0  0  0  0  0  0  0  0
   -3.6534   -1.2018    1.7535 C   0  0  2  0  0  0  0  0  0  0  0  0
   -4.0597   -2.1537    2.7050 O   0  0  0  0  0  0  0  0  0  0  0  0
   -4.5079   -2.0730   -1.9404 H   0  0  0  0  0  0  0  0  0  0  0  0
   -2.2965   -2.0522   -1.4008 H   0  0  0  0  0  0  0  0  0  0  0  0
   -3.1705   -0.5469   -0.9275 H   0  0  0  0  0  0  0  0  0  0  0  0
   -2.7169   -2.9813    0.8922 H   0  0  0  0  0  0  0  0  0  0  0  0
   -0.5351   -1.9768    0.2622 H   0  0  0  0  0  0  0  0  0  0  0  0
   -0.9067   -1.8843    1.9895 H   0  0  0  0  0  0  0  0  0  0  0  0
   -0.1093    0.2337    1.7111 H   0  0  0  0  0  0  0  0  0  0  0  0
    0.9783    4.2563    2.5562 H   0  0  0  0  0  0  0  0  0  0  0  0
    2.3369   -1.5515   -0.2803 H   0  0  0  0  0  0  0  0  0  0  0  0
    1.0316   -1.5693   -1.5015 H   0  0  0  0  0  0  0  0  0  0  0  0
    1.3186   -0.3810   -3.6976 H   0  0  0  0  0  0  0  0  0  0  0  0
    2.9286    0.2284   -5.4697 H   0  0  0  0  0  0  0  0  0  0  0  0
    5.3504    0.3707   -4.9596 H   0  0  0  0  0  0  0  0  0  0  0  0
    6.1646   -0.0943   -2.6647 H   0  0  0  0  0  0  0  0  0  0  0  0
    4.5706   -0.7052   -0.8800 H   0  0  0  0  0  0  0  0  0  0  0  0
   -2.8233    1.1375    0.6603 H   0  0  0  0  0  0  0  0  0  0  0  0
   -1.2599    1.8207    2.9519 H   0  0  0  0  0  0  0  0  0  0  0  0
   -2.4048   -0.3467    3.3229 H   0  0  0  0  0  0  0  0  0  0  0  0
   -3.7217    1.3167    3.7700 H   0  0  0  0  0  0  0  0  0  0  0  0
   -4.5546   -0.8535    1.1938 H   0  0  0  0  0  0  0  0  0  0  0  0
   -4.8874   -1.8065    3.1299 H   0  0  0  0  0  0  0  0  0  0  0  0
  1  2  1  0
  2  3  1  0
  3  4  1  0
  4  5  1  0
  5  6  1  0
  6  7  1  0
  7  8  2  0
  8  9  1  0
  9 10  1  0
 10 11  1  0
 10 12  2  0
 10 13  2  0
  7 14  1  0
 14 15  1  0
 15 16  2  0
 16 17  1  0
 17 18  2  0
 18 19  1  0
 19 20  2  0
  5 21  1  0
 21 22  1  0
 21 23  1  0
 23 24  1  0
 23 25  1  0
 25 26  1  0
 25  3  1  0
 20 15  1  0
  1 27  1  0
  2 28  1  0
  2 29  1  0
  3 30  1  1
  4 31  1  0
  4 32  1  0
  5 33  1  1
 11 34  1  0
 14 35  1  0
 14 36  1  0
 16 37  1  0
 17 38  1  0
 18 39  1  0
 19 40  1  0
 20 41  1  0
 21 42  1  6
 22 43  1  0
 23 44  1  1
 24 45  1  0
 25 46  1  6
 26 47  1  0
M  END
$$$$
