
     RDKit          3D

 43 45  0  0  0  0  0  0  0  0999 V2000
   -1.8854    2.1038   -2.5356 N   0  0  0  0  0  0  0  0  0  0  0  0
   -2.3792    2.2705   -0.8861 S   0  0  0  0  0  6  0  0  0  0  0  0
   -2.7975    3.6967   -0.6584 O   0  0  0  0  0  0  0  0  0  0  0  0
   -3.5494    1.3681   -0.6155 O   0  0  0  0  0  0  0  0  0  0  0  0
   -1.0425    1.8564    0.1984 C   0  0  0  0  0  0  0  0  0  0  0  0
   -0.8628    2.6119    1.3616 C   0  0  0  0  0  0  0  0  0  0  0  0
    0.2239    2.3742    2.2116 C   0  0  0  0  0  0  0  0  0  0  0  0
    1.1413    1.3672    1.8815 C   0  0  0  0  0  0  0  0  0  0  0  0
    0.9794    0.5726    0.7289 C   0  0  0  0  0  0  0  0  0  0  0  0
    1.9608   -0.4548    0.4265 N   0  0  0  0  0  0  0  0  0  0  0  0
    3.3233   -0.4401    0.9465 C   0  0  0  0  0  0  0  0  0  0  0  0
    4.0311   -1.6175    0.2946 C   0  0  0  0  0  0  0  0  0  0  0  0
    2.9178   -2.5552   -0.1468 C   0  0  0  0  0  0  0  0  0  0  0  0
    1.7000   -1.6647   -0.3435 C   0  0  0  0  0  0  0  0  0  0  0  0
   -0.1411    0.8126   -0.1077 C   0  0  0  0  0  0  0  0  0  0  0  0
   -0.3403    0.0440   -1.2591 O   0  0  0  0  0  0  0  0  0  0  0  0
   -1.3593   -0.9109   -1.4000 C   0  0  0  0  0  0  0  0  0  0  0  0
   -2.1171   -1.3660   -0.3032 C   0  0  0  0  0  0  0  0  0  0  0  0
   -3.1178   -2.3244   -0.4899 C   0  0  0  0  0  0  0  0  0  0  0  0
   -3.3658   -2.8390   -1.7652 C   0  0  0  0  0  0  0  0  0  0  0  0
   -2.6107   -2.3983   -2.8553 C   0  0  0  0  0  0  0  0  0  0  0  0
   -1.6091   -1.4402   -2.6720 C   0  0  0  0  0  0  0  0  0  0  0  0
    0.4106    3.1827    3.4387 C   0  0  0  0  0  0  0  0  0  0  0  0
    1.4971    2.9470    4.2775 O   0  0  0  0  0  0  0  0  0  0  0  0
   -0.4113    4.0914    3.7367 O   0  0  0  0  0  0  0  0  0  0  0  0
   -2.6870    2.4146   -3.1287 H   0  0  0  0  0  0  0  0  0  0  0  0
   -1.1094    2.7851   -2.6929 H   0  0  0  0  0  0  0  0  0  0  0  0
   -1.5692    3.3975    1.5988 H   0  0  0  0  0  0  0  0  0  0  0  0
    1.9808    1.1950    2.5393 H   0  0  0  0  0  0  0  0  0  0  0  0
    3.3099   -0.5846    2.0483 H   0  0  0  0  0  0  0  0  0  0  0  0
    3.8295    0.5153    0.6886 H   0  0  0  0  0  0  0  0  0  0  0  0
    4.7295   -2.1179    1.0001 H   0  0  0  0  0  0  0  0  0  0  0  0
    4.5959   -1.2666   -0.5972 H   0  0  0  0  0  0  0  0  0  0  0  0
    2.7142   -3.2940    0.6596 H   0  0  0  0  0  0  0  0  0  0  0  0
    3.1866   -3.0948   -1.0809 H   0  0  0  0  0  0  0  0  0  0  0  0
    0.7854   -2.1757    0.0266 H   0  0  0  0  0  0  0  0  0  0  0  0
    1.6068   -1.4155   -1.4218 H   0  0  0  0  0  0  0  0  0  0  0  0
   -1.9338   -0.9865    0.6933 H   0  0  0  0  0  0  0  0  0  0  0  0
   -3.6997   -2.6699    0.3548 H   0  0  0  0  0  0  0  0  0  0  0  0
   -4.1407   -3.5810   -1.9081 H   0  0  0  0  0  0  0  0  0  0  0  0
   -2.8009   -2.7995   -3.8424 H   0  0  0  0  0  0  0  0  0  0  0  0
   -1.0275   -1.1038   -3.5208 H   0  0  0  0  0  0  0  0  0  0  0  0
    1.6333    3.4944    5.1190 H   0  0  0  0  0  0  0  0  0  0  0  0
  1  2  1  0
  2  3  2  0
  2  4  2  0
  2  5  1  0
  5  6  2  0
  6  7  1  0
  7  8  2  0
  8  9  1  0
  9 10  1  0
 10 11  1  0
 11 12  1  0
 12 13  1  0
 13 14  1  0
  9 15  2  0
 15 16  1  0
 16 17  1  0
 17 18  2  0
 18 19  1  0
 19 20  2  0
 20 21  1  0
 21 22  2  0
  7 23  1  0
 23 24  1  0
 23 25  2  0
 15  5  1  0
 22 17  1  0
 14 10  1  0
  1 26  1  0
  1 27  1  0
  6 28  1  0
  8 29  1  0
 11 30  1  0
 11 31  1  0
 12 32  1  0
 12 33  1  0
 13 34  1  0
 13 35  1  0
 14 36  1  0
 14 37  1  0
 18 38  1  0
 19 39  1  0
 20 40  1  0
 21 41  1  0
 22 42  1  0
 24 43  1  0
M  END
$$$$
