
     RDKit          3D

 54 56  0  0  0  0  0  0  0  0999 V2000
   -3.7092   -4.6133   -0.0331 C   0  0  0  0  0  0  0  0  0  0  0  0
   -3.5615   -3.4108    0.7158 O   0  0  0  0  0  0  0  0  0  0  0  0
   -2.6850   -2.3618    0.3950 C   0  0  0  0  0  0  0  0  0  0  0  0
   -1.8530   -2.4394   -0.7365 C   0  0  0  0  0  0  0  0  0  0  0  0
   -0.9949   -1.3882   -1.0791 C   0  0  0  0  0  0  0  0  0  0  0  0
   -0.9476   -0.2281   -0.2719 C   0  0  0  0  0  0  0  0  0  0  0  0
   -1.7338   -0.1714    0.8971 C   0  0  0  0  0  0  0  0  0  0  0  0
   -1.6170    0.9335    1.7475 O   0  0  0  0  0  0  0  0  0  0  0  0
   -1.0144    0.8340    3.0323 C   0  0  0  0  0  0  0  0  0  0  0  0
   -2.6255   -1.2112    1.2198 C   0  0  0  0  0  0  0  0  0  0  0  0
   -3.4263   -1.0314    2.3642 O   0  0  0  0  0  0  0  0  0  0  0  0
   -4.3859   -1.9446    2.8846 C   0  0  0  0  0  0  0  0  0  0  0  0
   -0.0152    0.9013   -0.6135 C   0  0  0  0  0  0  0  0  0  0  0  0
   -0.6272    2.1540   -0.7308 C   0  0  0  0  0  0  0  0  0  0  0  0
   -0.0765    3.4036   -0.9706 C   0  0  0  0  0  0  0  0  0  0  0  0
    1.2197    3.7524   -1.3650 C   0  0  0  0  0  0  0  0  0  0  0  0
    1.5447    5.1146   -1.5431 O   0  0  0  0  0  0  0  0  0  0  0  0
    0.6840    6.2240   -1.2970 C   0  0  0  0  0  0  0  0  0  0  0  0
    2.2548    2.8589   -1.6556 C   0  0  0  0  0  0  0  0  0  0  0  0
    3.3062    3.3594   -2.1447 O   0  0  0  0  0  0  0  0  0  0  0  0
    2.2828    1.4785   -1.4506 C   0  0  0  0  0  0  0  0  0  0  0  0
    1.3530    0.6095   -0.8521 C   0  0  0  0  0  0  0  0  0  0  0  0
    1.8119   -0.8391   -0.6136 C   0  0  0  0  0  0  0  0  0  0  0  0
    1.4045   -1.7399   -1.8037 C   0  0  0  0  0  0  0  0  0  0  0  0
   -0.0575   -1.5431   -2.2568 C   0  0  0  0  0  0  0  0  0  0  0  0
    3.2542   -0.9413   -0.3516 N   0  0  0  0  0  0  0  0  0  0  0  0
    3.8467   -0.4286    0.8501 C   0  0  0  0  0  0  0  0  0  0  0  0
    5.3221   -0.5340    1.0567 C   0  0  0  0  0  0  0  0  0  0  0  0
    3.1328    0.1331    1.7248 O   0  0  0  0  0  0  0  0  0  0  0  0
   -4.4758   -5.2501    0.4538 H   0  0  0  0  0  0  0  0  0  0  0  0
   -4.0448   -4.3818   -1.0660 H   0  0  0  0  0  0  0  0  0  0  0  0
   -2.7487   -5.1701   -0.0556 H   0  0  0  0  0  0  0  0  0  0  0  0
   -1.8642   -3.3233   -1.3594 H   0  0  0  0  0  0  0  0  0  0  0  0
    0.0277    0.4630    2.9312 H   0  0  0  0  0  0  0  0  0  0  0  0
   -0.9928    1.8386    3.5017 H   0  0  0  0  0  0  0  0  0  0  0  0
   -1.5908    0.1473    3.6852 H   0  0  0  0  0  0  0  0  0  0  0  0
   -4.8401   -1.5050    3.7960 H   0  0  0  0  0  0  0  0  0  0  0  0
   -3.8945   -2.8986    3.1692 H   0  0  0  0  0  0  0  0  0  0  0  0
   -5.1948   -2.1168    2.1440 H   0  0  0  0  0  0  0  0  0  0  0  0
   -1.6981    2.1834   -0.5551 H   0  0  0  0  0  0  0  0  0  0  0  0
   -0.7948    4.2054   -0.8757 H   0  0  0  0  0  0  0  0  0  0  0  0
   -0.1898    6.1906   -1.9814 H   0  0  0  0  0  0  0  0  0  0  0  0
    0.3492    6.2224   -0.2381 H   0  0  0  0  0  0  0  0  0  0  0  0
    1.2426    7.1629   -1.4883 H   0  0  0  0  0  0  0  0  0  0  0  0
    3.2145    1.0234   -1.7679 H   0  0  0  0  0  0  0  0  0  0  0  0
    1.3115   -1.2408    0.2959 H   0  0  0  0  0  0  0  0  0  0  0  0
    1.5505   -2.8025   -1.5100 H   0  0  0  0  0  0  0  0  0  0  0  0
    2.0689   -1.5371   -2.6721 H   0  0  0  0  0  0  0  0  0  0  0  0
   -0.1293   -0.6392   -2.9003 H   0  0  0  0  0  0  0  0  0  0  0  0
   -0.3557   -2.4020   -2.8968 H   0  0  0  0  0  0  0  0  0  0  0  0
    3.8752   -1.4158   -1.0464 H   0  0  0  0  0  0  0  0  0  0  0  0
    5.6469   -1.5842    0.9025 H   0  0  0  0  0  0  0  0  0  0  0  0
    5.8441    0.1210    0.3285 H   0  0  0  0  0  0  0  0  0  0  0  0
    5.5961   -0.2216    2.0868 H   0  0  0  0  0  0  0  0  0  0  0  0
  1  2  1  0
  2  3  1  0
  3  4  2  0
  4  5  1  0
  5  6  2  0
  6  7  1  0
  7  8  1  0
  8  9  1  0
  7 10  2  0
 10 11  1  0
 11 12  1  0
  6 13  1  0
 13 14  2  0
 14 15  1  0
 15 16  2  0
 16 17  1  0
 17 18  1  0
 16 19  1  0
 19 20  2  0
 19 21  1  0
 21 22  2  0
 22 23  1  0
 23 24  1  0
 24 25  1  0
 23 26  1  0
 26 27  1  0
 27 28  1  0
 27 29  2  0
 10  3  1  0
 22 13  1  0
 25  5  1  0
  1 30  1  0
  1 31  1  0
  1 32  1  0
  4 33  1  0
  9 34  1  0
  9 35  1  0
  9 36  1  0
 12 37  1  0
 12 38  1  0
 12 39  1  0
 14 40  1  0
 15 41  1  0
 18 42  1  0
 18 43  1  0
 18 44  1  0
 21 45  1  0
 23 46  1  0
 24 47  1  0
 24 48  1  0
 25 49  1  0
 25 50  1  0
 26 51  1  0
 28 52  1  0
 28 53  1  0
 28 54  1  0
M  END
$$$$
