
     RDKit          3D

 55 58  0  0  0  0  0  0  0  0999 V2000
    0.7192    0.4793   -0.7572 C   0  0  2  0  0  0  0  0  0  0  0  0
    1.6813    0.3307   -1.9331 C   0  0  0  0  0  0  0  0  0  0  0  0
    2.9903    0.7142   -1.3005 C   0  0  0  0  0  0  0  0  0  0  0  0
    4.0437    1.1201   -2.0219 C   0  0  0  0  0  0  0  0  0  0  0  0
    2.8930    0.8006    0.2177 C   0  0  2  0  0  0  0  0  0  0  0  0
    2.7662    2.1604    0.5726 O   0  0  0  0  0  0  0  0  0  0  0  0
    4.0677    0.1915    0.9946 C   0  0  0  0  0  0  0  0  0  0  0  0
    4.2242    0.5214    2.1613 O   0  0  0  0  0  0  0  0  0  0  0  0
    5.0005   -0.8523    0.4264 C   0  0  0  0  0  0  0  0  0  0  0  0
    6.3290   -0.4149    0.5145 O   0  0  0  0  0  0  0  0  0  0  0  0
    1.5362    0.0545    0.4786 C   0  0  2  0  0  0  0  0  0  0  0  0
    1.7836   -1.4933    0.5272 C   0  0  0  0  0  0  0  0  0  0  0  0
    0.7575    0.5094    1.7417 C   0  0  0  0  0  0  0  0  0  0  0  0
   -0.7018   -0.0347    1.7798 C   0  0  2  0  0  0  0  0  0  0  0  0
   -0.6988   -1.3989    2.1036 O   0  0  0  0  0  0  0  0  0  0  0  0
   -1.5009    0.2461    0.4508 C   0  0  1  0  0  0  0  0  0  0  0  0
   -1.6481    1.6298    0.3988 F   0  0  0  0  0  0  0  0  0  0  0  0
   -0.6799   -0.1752   -0.8284 C   0  0  1  0  0  0  0  0  0  0  0  0
   -1.4109    0.2604   -2.1179 C   0  0  0  0  0  0  0  0  0  0  0  0
   -2.8215   -0.3215   -2.1870 C   0  0  0  0  0  0  0  0  0  0  0  0
   -3.5872    0.0383   -0.9386 C   0  0  0  0  0  0  0  0  0  0  0  0
   -4.7751    0.6551   -1.0480 C   0  0  0  0  0  0  0  0  0  0  0  0
   -5.5198    1.0671    0.1407 C   0  0  0  0  0  0  0  0  0  0  0  0
   -6.6415    1.6270    0.0237 O   0  0  0  0  0  0  0  0  0  0  0  0
   -4.9465    0.8402    1.4644 C   0  0  0  0  0  0  0  0  0  0  0  0
   -3.7724    0.2227    1.5981 C   0  0  0  0  0  0  0  0  0  0  0  0
   -2.9733   -0.3416    0.4207 C   0  0  2  0  0  0  0  0  0  0  0  0
   -3.0452   -1.8850    0.5428 C   0  0  0  0  0  0  0  0  0  0  0  0
    0.5348    1.5795   -0.6821 H   0  0  0  0  0  0  0  0  0  0  0  0
    1.4104    1.0310   -2.7536 H   0  0  0  0  0  0  0  0  0  0  0  0
    1.7184   -0.7130   -2.3117 H   0  0  0  0  0  0  0  0  0  0  0  0
    4.9379    1.4941   -1.5369 H   0  0  0  0  0  0  0  0  0  0  0  0
    4.0107    1.0965   -3.1065 H   0  0  0  0  0  0  0  0  0  0  0  0
    3.6187    2.6171    0.3448 H   0  0  0  0  0  0  0  0  0  0  0  0
    4.8980   -1.7783    1.0301 H   0  0  0  0  0  0  0  0  0  0  0  0
    4.7509   -1.1258   -0.6207 H   0  0  0  0  0  0  0  0  0  0  0  0
    6.4707    0.2214   -0.2331 H   0  0  0  0  0  0  0  0  0  0  0  0
    2.4223   -1.8321   -0.3136 H   0  0  0  0  0  0  0  0  0  0  0  0
    0.8661   -2.1012    0.4723 H   0  0  0  0  0  0  0  0  0  0  0  0
    2.2896   -1.7723    1.4757 H   0  0  0  0  0  0  0  0  0  0  0  0
    1.3037    0.1923    2.6566 H   0  0  0  0  0  0  0  0  0  0  0  0
    0.7011    1.6188    1.7772 H   0  0  0  0  0  0  0  0  0  0  0  0
   -1.2107    0.5200    2.6010 H   0  0  0  0  0  0  0  0  0  0  0  0
   -0.4674   -1.4709    3.0665 H   0  0  0  0  0  0  0  0  0  0  0  0
   -0.5694   -1.2733   -0.8834 H   0  0  0  0  0  0  0  0  0  0  0  0
   -1.4692    1.3702   -2.1738 H   0  0  0  0  0  0  0  0  0  0  0  0
   -0.8471   -0.0939   -3.0077 H   0  0  0  0  0  0  0  0  0  0  0  0
   -3.3193    0.0658   -3.1033 H   0  0  0  0  0  0  0  0  0  0  0  0
   -2.7683   -1.4266   -2.2848 H   0  0  0  0  0  0  0  0  0  0  0  0
   -5.1910    0.8834   -2.0223 H   0  0  0  0  0  0  0  0  0  0  0  0
   -5.4823    1.1728    2.3450 H   0  0  0  0  0  0  0  0  0  0  0  0
   -3.4187    0.0425    2.6050 H   0  0  0  0  0  0  0  0  0  0  0  0
   -2.8803   -2.2302    1.5841 H   0  0  0  0  0  0  0  0  0  0  0  0
   -2.3185   -2.3979   -0.1160 H   0  0  0  0  0  0  0  0  0  0  0  0
   -4.0605   -2.2412    0.2612 H   0  0  0  0  0  0  0  0  0  0  0  0
  1  2  1  0
  2  3  1  0
  3  4  2  3
  3  5  1  0
  5  6  1  6
  5  7  1  0
  7  8  2  0
  7  9  1  0
  9 10  1  0
  5 11  1  0
 11 12  1  1
 11 13  1  0
 13 14  1  0
 14 15  1  0
 14 16  1  0
 16 17  1  6
 16 18  1  0
 18 19  1  0
 19 20  1  0
 20 21  1  0
 21 22  2  0
 22 23  1  0
 23 24  2  0
 23 25  1  0
 25 26  2  0
 26 27  1  0
 27 28  1  1
 11  1  1  0
 27 16  1  0
 18  1  1  0
 27 21  1  0
  1 29  1  1
  2 30  1  0
  2 31  1  0
  4 32  1  0
  4 33  1  0
  6 34  1  0
  9 35  1  0
  9 36  1  0
 10 37  1  0
 12 38  1  0
 12 39  1  0
 12 40  1  0
 13 41  1  0
 13 42  1  0
 14 43  1  1
 15 44  1  0
 18 45  1  6
 19 46  1  0
 19 47  1  0
 20 48  1  0
 20 49  1  0
 22 50  1  0
 25 51  1  0
 26 52  1  0
 28 53  1  0
 28 54  1  0
 28 55  1  0
M  END
$$$$
