
     RDKit          3D

 18 19  0  0  0  0  0  0  0  0999 V2000
    2.3239    1.6013    1.5554 O   0  0  0  0  0  0  0  0  0  0  0  0
    1.8232    0.5451    1.0874 C   0  0  0  0  0  0  0  0  0  0  0  0
    2.3901   -0.6732    1.1784 N   0  0  0  0  0  0  0  0  0  0  0  0
    1.5826   -1.5269    0.6120 O   0  0  0  0  0  0  0  0  0  0  0  0
    0.5157   -0.9025    0.1621 C   0  0  0  0  0  0  0  0  0  0  0  0
    0.6264    0.4366    0.4219 C   0  0  0  0  0  0  0  0  0  0  0  0
   -0.4485    1.4308    0.1283 C   0  0  0  0  0  0  0  0  0  0  0  0
   -1.4511    0.8086   -0.8677 C   0  0  0  0  0  0  0  0  0  0  0  0
   -1.8095   -0.5707   -0.4726 N   0  0  0  0  0  0  0  0  0  0  0  0
   -0.6540   -1.4872   -0.5610 C   0  0  0  0  0  0  0  0  0  0  0  0
    3.3029   -0.9127    1.6252 H   0  0  0  0  0  0  0  0  0  0  0  0
   -0.0065    2.3542   -0.3026 H   0  0  0  0  0  0  0  0  0  0  0  0
   -0.9721    1.6850    1.0746 H   0  0  0  0  0  0  0  0  0  0  0  0
   -1.0147    0.8120   -1.8924 H   0  0  0  0  0  0  0  0  0  0  0  0
   -2.3687    1.4353   -0.8897 H   0  0  0  0  0  0  0  0  0  0  0  0
   -2.5412   -0.9158   -1.1368 H   0  0  0  0  0  0  0  0  0  0  0  0
   -0.9210   -2.4604   -0.0981 H   0  0  0  0  0  0  0  0  0  0  0  0
   -0.3774   -1.6595   -1.6245 H   0  0  0  0  0  0  0  0  0  0  0  0
  1  2  2  0
  2  3  1  0
  3  4  1  0
  4  5  1  0
  5  6  2  0
  6  7  1  0
  7  8  1  0
  8  9  1  0
  9 10  1  0
  6  2  1  0
 10  5  1  0
  3 11  1  0
  7 12  1  0
  7 13  1  0
  8 14  1  0
  8 15  1  0
  9 16  1  0
 10 17  1  0
 10 18  1  0
M  END
$$$$
