
     RDKit          3D

 32 34  0  0  0  0  0  0  0  0999 V2000
   -4.5840    3.1067   -0.3237 O   0  0  0  0  0  0  0  0  0  0  0  0
   -3.9289    1.8846   -0.1881 C   0  0  0  0  0  0  0  0  0  0  0  0
   -2.5367    1.8501   -0.1695 C   0  0  0  0  0  0  0  0  0  0  0  0
   -1.8594    0.6339   -0.0541 C   0  0  0  0  0  0  0  0  0  0  0  0
   -2.5793   -0.5858    0.0540 C   0  0  0  0  0  0  0  0  0  0  0  0
   -4.0050   -0.5341    0.0893 C   0  0  0  0  0  0  0  0  0  0  0  0
   -4.8223   -1.6495    0.2950 O   0  0  0  0  0  0  0  0  0  0  0  0
   -4.6546    0.6972   -0.0627 C   0  0  0  0  0  0  0  0  0  0  0  0
   -1.8153   -1.7768    0.0834 C   0  0  0  0  0  0  0  0  0  0  0  0
   -2.3527   -2.9144    0.0739 O   0  0  0  0  0  0  0  0  0  0  0  0
   -0.4215   -1.7068    0.0857 C   0  0  0  0  0  0  0  0  0  0  0  0
    0.2099   -0.4568    0.0271 C   0  0  0  0  0  0  0  0  0  0  0  0
   -0.5306    0.6437   -0.0553 O   0  0  0  0  0  0  0  0  0  0  0  0
    1.6889   -0.3250    0.0277 C   0  0  0  0  0  0  0  0  0  0  0  0
    2.2840    0.7918   -0.5837 C   0  0  0  0  0  0  0  0  0  0  0  0
    3.6770    0.9471   -0.5920 C   0  0  0  0  0  0  0  0  0  0  0  0
    4.2533    2.0553   -1.2114 O   0  0  0  0  0  0  0  0  0  0  0  0
    4.4919   -0.0160    0.0248 C   0  0  0  0  0  0  0  0  0  0  0  0
    5.8809    0.1159    0.0283 O   0  0  0  0  0  0  0  0  0  0  0  0
    3.9087   -1.1247    0.6498 C   0  0  0  0  0  0  0  0  0  0  0  0
    4.7219   -2.0719    1.2701 O   0  0  0  0  0  0  0  0  0  0  0  0
    2.5153   -1.2768    0.6541 C   0  0  0  0  0  0  0  0  0  0  0  0
   -5.5955    3.1671   -0.3385 H   0  0  0  0  0  0  0  0  0  0  0  0
   -1.9764    2.7730   -0.2577 H   0  0  0  0  0  0  0  0  0  0  0  0
   -4.5111   -2.5302    0.6752 H   0  0  0  0  0  0  0  0  0  0  0  0
   -5.7372    0.7320   -0.0544 H   0  0  0  0  0  0  0  0  0  0  0  0
    0.1543   -2.6236    0.0914 H   0  0  0  0  0  0  0  0  0  0  0  0
    1.6676    1.5400   -1.0673 H   0  0  0  0  0  0  0  0  0  0  0  0
    3.6886    2.7648   -1.6636 H   0  0  0  0  0  0  0  0  0  0  0  0
    6.3490    0.9003   -0.4095 H   0  0  0  0  0  0  0  0  0  0  0  0
    4.3323   -2.8853    1.7320 H   0  0  0  0  0  0  0  0  0  0  0  0
    2.0872   -2.1259    1.1697 H   0  0  0  0  0  0  0  0  0  0  0  0
  1  2  1  0
  2  3  2  0
  3  4  1  0
  4  5  2  0
  5  6  1  0
  6  7  1  0
  6  8  2  0
  5  9  1  0
  9 10  2  0
  9 11  1  0
 11 12  2  0
 12 13  1  0
 12 14  1  0
 14 15  2  0
 15 16  1  0
 16 17  1  0
 16 18  2  0
 18 19  1  0
 18 20  1  0
 20 21  1  0
 20 22  2  0
  8  2  1  0
 22 14  1  0
 13  4  1  0
  1 23  1  0
  3 24  1  0
  7 25  1  0
  8 26  1  0
 11 27  1  0
 15 28  1  0
 17 29  1  0
 19 30  1  0
 21 31  1  0
 22 32  1  0
M  END
$$$$
