
     RDKit          3D

 37 39  0  0  0  0  0  0  0  0999 V2000
    1.8492   -1.3046   -0.9976 C   0  0  1  0  0  0  0  0  0  0  0  0
    2.6287   -0.0654   -0.5397 C   0  0  0  0  0  0  0  0  0  0  0  0
    1.7796    1.0585   -0.5340 O   0  0  0  0  0  0  0  0  0  0  0  0
    2.6285    2.3754    0.1358 P   0  0  0  0  0  5  0  0  0  0  0  0
    4.0599    2.6546   -0.7258 O   0  0  0  0  0  0  0  0  0  0  0  0
    2.9851    2.0610    1.7613 O   0  0  0  0  0  0  0  0  0  0  0  0
    1.7579    3.6081    0.0520 O   0  0  0  0  0  0  0  0  0  0  0  0
    0.8193   -1.5825   -0.0693 O   0  0  0  0  0  0  0  0  0  0  0  0
   -0.3631   -1.7881   -0.8060 C   0  0  1  0  0  0  0  0  0  0  0  0
   -1.5279   -1.3298   -0.0411 N   0  0  0  0  0  0  0  0  0  0  0  0
   -2.7836   -1.8565   -0.0272 C   0  0  0  0  0  0  0  0  0  0  0  0
   -3.3021   -3.4339   -0.9758 Br  0  0  0  0  0  0  0  0  0  0  0  0
   -3.6648   -1.1445    0.7279 N   0  0  0  0  0  0  0  0  0  0  0  0
   -2.9087   -0.1312    1.1879 C   0  0  0  0  0  0  0  0  0  0  0  0
   -3.2648    0.9368    2.0040 C   0  0  0  0  0  0  0  0  0  0  0  0
   -4.5915    1.0880    2.5090 N   0  0  0  0  0  0  0  0  0  0  0  0
   -2.2960    1.8512    2.3093 N   0  0  0  0  0  0  0  0  0  0  0  0
   -1.0175    1.7245    1.8282 C   0  0  0  0  0  0  0  0  0  0  0  0
   -0.6804    0.6709    1.0254 N   0  0  0  0  0  0  0  0  0  0  0  0
   -1.6414   -0.2364    0.7269 C   0  0  0  0  0  0  0  0  0  0  0  0
   -0.2364   -1.0267   -2.1149 C   0  0  2  0  0  0  0  0  0  0  0  0
   -1.0050   -1.6119   -3.1342 O   0  0  0  0  0  0  0  0  0  0  0  0
    1.2418   -1.1226   -2.4001 C   0  0  2  0  0  0  0  0  0  0  0  0
    1.5187   -2.2465   -3.1980 O   0  0  0  0  0  0  0  0  0  0  0  0
    2.5567   -2.1640   -0.9979 H   0  0  0  0  0  0  0  0  0  0  0  0
    3.0291   -0.2740    0.4792 H   0  0  0  0  0  0  0  0  0  0  0  0
    3.4792    0.0932   -1.2404 H   0  0  0  0  0  0  0  0  0  0  0  0
    4.7395    2.0849   -0.2847 H   0  0  0  0  0  0  0  0  0  0  0  0
    3.5064    2.8473    2.0626 H   0  0  0  0  0  0  0  0  0  0  0  0
   -0.4538   -2.8792   -1.0085 H   0  0  0  0  0  0  0  0  0  0  0  0
   -5.3370    0.3937    2.2791 H   0  0  0  0  0  0  0  0  0  0  0  0
   -4.8310    1.9010    3.1186 H   0  0  0  0  0  0  0  0  0  0  0  0
   -0.2711    2.4635    2.0850 H   0  0  0  0  0  0  0  0  0  0  0  0
   -0.5128    0.0461   -1.9769 H   0  0  0  0  0  0  0  0  0  0  0  0
   -1.9405   -1.3160   -2.9851 H   0  0  0  0  0  0  0  0  0  0  0  0
    1.5920   -0.1960   -2.9143 H   0  0  0  0  0  0  0  0  0  0  0  0
    2.4579   -2.1488   -3.5049 H   0  0  0  0  0  0  0  0  0  0  0  0
  1  2  1  0
  2  3  1  0
  3  4  1  0
  4  5  1  0
  4  6  1  0
  4  7  2  0
  1  8  1  0
  8  9  1  0
  9 10  1  0
 10 11  1  0
 11 12  1  0
 11 13  2  0
 13 14  1  0
 14 15  2  0
 15 16  1  0
 15 17  1  0
 17 18  2  0
 18 19  1  0
 19 20  2  0
  9 21  1  0
 21 22  1  0
 21 23  1  0
 23 24  1  0
 23  1  1  0
 20 10  1  0
 20 14  1  0
  1 25  1  6
  2 26  1  0
  2 27  1  0
  5 28  1  0
  6 29  1  0
  9 30  1  6
 16 31  1  0
 16 32  1  0
 18 33  1  0
 21 34  1  1
 22 35  1  0
 23 36  1  6
 24 37  1  0
M  END
$$$$
