
     RDKit          3D

 33 34  0  0  0  0  0  0  0  0999 V2000
    5.5845   -0.5053   -0.8805 C   0  0  0  0  0  0  0  0  0  0  0  0
    4.3537    0.2228   -0.5690 N   0  0  0  0  0  0  0  0  0  0  0  0
    3.3770   -0.6753    0.0587 C   0  0  0  0  0  0  0  0  0  0  0  0
    2.0506    0.0539    0.2857 C   0  0  0  0  0  0  0  0  0  0  0  0
    1.5006    0.5329   -0.9870 N   0  0  0  0  0  0  0  0  0  0  0  0
   -0.0505    1.2841   -0.7357 S   0  0  0  0  0  6  0  0  0  0  0  0
   -0.4013    2.0494   -1.9805 O   0  0  0  0  0  0  0  0  0  0  0  0
    0.0625    2.2459    0.4153 O   0  0  0  0  0  0  0  0  0  0  0  0
   -1.3608    0.1226   -0.4028 C   0  0  0  0  0  0  0  0  0  0  0  0
   -1.1015   -1.2576   -0.4898 C   0  0  0  0  0  0  0  0  0  0  0  0
   -2.0964   -2.1949   -0.2149 C   0  0  0  0  0  0  0  0  0  0  0  0
   -3.3749   -1.7793    0.1433 C   0  0  0  0  0  0  0  0  0  0  0  0
   -3.6746   -0.4143    0.2165 C   0  0  0  0  0  0  0  0  0  0  0  0
   -2.6745    0.5539   -0.0641 C   0  0  0  0  0  0  0  0  0  0  0  0
   -3.0342    1.9162   -0.0032 C   0  0  0  0  0  0  0  0  0  0  0  0
   -4.3369    2.2797    0.3427 C   0  0  0  0  0  0  0  0  0  0  0  0
   -5.2649    1.3282    0.6160 N   0  0  0  0  0  0  0  0  0  0  0  0
   -4.9676    0.0051    0.5608 C   0  0  0  0  0  0  0  0  0  0  0  0
    5.3808   -1.3096   -1.6198 H   0  0  0  0  0  0  0  0  0  0  0  0
    6.3213    0.1938   -1.3293 H   0  0  0  0  0  0  0  0  0  0  0  0
    6.0301   -0.9449    0.0394 H   0  0  0  0  0  0  0  0  0  0  0  0
    4.5991    0.9711    0.1214 H   0  0  0  0  0  0  0  0  0  0  0  0
    3.1915   -1.5596   -0.5916 H   0  0  0  0  0  0  0  0  0  0  0  0
    3.7606   -1.0364    1.0399 H   0  0  0  0  0  0  0  0  0  0  0  0
    2.2310    0.9151    0.9651 H   0  0  0  0  0  0  0  0  0  0  0  0
    1.3423   -0.6395    0.7873 H   0  0  0  0  0  0  0  0  0  0  0  0
    1.3776   -0.2652   -1.6498 H   0  0  0  0  0  0  0  0  0  0  0  0
   -0.1292   -1.6302   -0.7699 H   0  0  0  0  0  0  0  0  0  0  0  0
   -1.8734   -3.2522   -0.2808 H   0  0  0  0  0  0  0  0  0  0  0  0
   -4.1326   -2.5250    0.3541 H   0  0  0  0  0  0  0  0  0  0  0  0
   -2.3351    2.7076   -0.2267 H   0  0  0  0  0  0  0  0  0  0  0  0
   -4.6118    3.3250    0.3909 H   0  0  0  0  0  0  0  0  0  0  0  0
   -5.7430   -0.7179    0.7823 H   0  0  0  0  0  0  0  0  0  0  0  0
  1  2  1  0
  2  3  1  0
  3  4  1  0
  4  5  1  0
  5  6  1  0
  6  7  2  0
  6  8  2  0
  6  9  1  0
  9 10  2  0
 10 11  1  0
 11 12  2  0
 12 13  1  0
 13 14  2  0
 14 15  1  0
 15 16  2  0
 16 17  1  0
 17 18  2  0
 14  9  1  0
 18 13  1  0
  1 19  1  0
  1 20  1  0
  1 21  1  0
  2 22  1  0
  3 23  1  0
  3 24  1  0
  4 25  1  0
  4 26  1  0
  5 27  1  0
 10 28  1  0
 11 29  1  0
 12 30  1  0
 15 31  1  0
 16 32  1  0
 18 33  1  0
M  END
$$$$
