
     RDKit          3D

 66 67  0  0  0  0  0  0  0  0999 V2000
    5.3510   -1.4410   -0.4892 C   0  0  0  0  0  0  0  0  0  0  0  0
    5.5644   -0.4748    0.6741 C   0  0  0  0  0  0  0  0  0  0  0  0
    6.5283   -1.0792    1.6993 C   0  0  0  0  0  0  0  0  0  0  0  0
    4.3042   -0.1983    1.2862 O   0  0  0  0  0  0  0  0  0  0  0  0
    4.0891    0.8759    2.1575 C   0  0  0  0  0  0  0  0  0  0  0  0
    5.0051    1.7113    2.3907 O   0  0  0  0  0  0  0  0  0  0  0  0
    2.7506    1.0424    2.8070 C   0  0  0  0  0  0  0  0  0  0  0  0
    1.9855    2.2592    2.2618 C   0  0  0  0  0  0  0  0  0  0  0  0
    1.4241    2.0382    0.8493 C   0  0  0  0  0  0  0  0  0  0  0  0
    2.4994    2.1490   -0.2085 C   0  0  0  0  0  0  0  0  0  0  0  0
    2.6705    1.2878   -1.2301 C   0  0  0  0  0  0  0  0  0  0  0  0
    1.8464    0.0448   -1.4514 C   0  0  0  0  0  0  0  0  0  0  0  0
    0.4365    0.3793   -1.9886 C   0  0  1  0  0  0  0  0  0  0  0  0
    0.4047    0.9131   -3.4233 C   0  0  1  0  0  0  0  0  0  0  0  0
    1.3067    0.2098   -4.2406 O   0  0  0  0  0  0  0  0  0  0  0  0
   -1.0298    0.6561   -3.8941 C   0  0  0  0  0  0  0  0  0  0  0  0
   -1.5868   -0.4921   -3.0392 C   0  0  1  0  0  0  0  0  0  0  0  0
   -1.8869   -1.5982   -3.8501 O   0  0  0  0  0  0  0  0  0  0  0  0
   -0.4833   -0.8435   -2.0258 C   0  0  2  0  0  0  0  0  0  0  0  0
   -1.0139   -1.2334   -0.6615 C   0  0  0  0  0  0  0  0  0  0  0  0
   -1.7329   -0.4012    0.1102 C   0  0  0  0  0  0  0  0  0  0  0  0
   -2.1878   -0.8160    1.4857 C   0  0  0  0  0  0  0  0  0  0  0  0
   -1.0782   -1.1255    2.2539 F   0  0  0  0  0  0  0  0  0  0  0  0
   -2.9823   -1.9441    1.3836 F   0  0  0  0  0  0  0  0  0  0  0  0
   -2.9633    0.3135    2.1793 C   0  0  0  0  0  0  0  0  0  0  0  0
   -4.0935    0.7254    1.4064 O   0  0  0  0  0  0  0  0  0  0  0  0
   -5.3282    0.0605    1.3289 C   0  0  0  0  0  0  0  0  0  0  0  0
   -5.6785   -1.0090    2.1785 C   0  0  0  0  0  0  0  0  0  0  0  0
   -6.9260   -1.6287    2.0517 C   0  0  0  0  0  0  0  0  0  0  0  0
   -7.8336   -1.1885    1.0854 C   0  0  0  0  0  0  0  0  0  0  0  0
   -7.4963   -0.1254    0.2447 C   0  0  0  0  0  0  0  0  0  0  0  0
   -6.2504    0.4966    0.3683 C   0  0  0  0  0  0  0  0  0  0  0  0
    4.6895   -0.9746   -1.2476 H   0  0  0  0  0  0  0  0  0  0  0  0
    4.8782   -2.3809   -0.1321 H   0  0  0  0  0  0  0  0  0  0  0  0
    6.3205   -1.6817   -0.9753 H   0  0  0  0  0  0  0  0  0  0  0  0
    5.9997    0.4654    0.2676 H   0  0  0  0  0  0  0  0  0  0  0  0
    6.7138   -0.3595    2.5235 H   0  0  0  0  0  0  0  0  0  0  0  0
    7.5025   -1.3142    1.2200 H   0  0  0  0  0  0  0  0  0  0  0  0
    6.1009   -2.0101    2.1296 H   0  0  0  0  0  0  0  0  0  0  0  0
    2.1471    0.1185    2.6724 H   0  0  0  0  0  0  0  0  0  0  0  0
    2.9073    1.1779    3.8988 H   0  0  0  0  0  0  0  0  0  0  0  0
    2.6242    3.1696    2.2929 H   0  0  0  0  0  0  0  0  0  0  0  0
    1.1254    2.4469    2.9410 H   0  0  0  0  0  0  0  0  0  0  0  0
    0.6711    2.8284    0.6429 H   0  0  0  0  0  0  0  0  0  0  0  0
    0.8890    1.0681    0.8252 H   0  0  0  0  0  0  0  0  0  0  0  0
    3.1519    3.0167   -0.1676 H   0  0  0  0  0  0  0  0  0  0  0  0
    3.4815    1.4792   -1.9267 H   0  0  0  0  0  0  0  0  0  0  0  0
    1.7794   -0.5284   -0.5021 H   0  0  0  0  0  0  0  0  0  0  0  0
    2.3785   -0.6174   -2.1666 H   0  0  0  0  0  0  0  0  0  0  0  0
   -0.0225    1.1618   -1.3469 H   0  0  0  0  0  0  0  0  0  0  0  0
    0.6417    2.0031   -3.4332 H   0  0  0  0  0  0  0  0  0  0  0  0
    1.4196    0.7479   -5.0672 H   0  0  0  0  0  0  0  0  0  0  0  0
   -1.6381    1.5722   -3.7239 H   0  0  0  0  0  0  0  0  0  0  0  0
   -1.0647    0.4212   -4.9811 H   0  0  0  0  0  0  0  0  0  0  0  0
   -2.5141   -0.1368   -2.5315 H   0  0  0  0  0  0  0  0  0  0  0  0
   -2.4034   -2.2296   -3.2842 H   0  0  0  0  0  0  0  0  0  0  0  0
    0.0993   -1.7063   -2.4245 H   0  0  0  0  0  0  0  0  0  0  0  0
   -0.7699   -2.2247   -0.2890 H   0  0  0  0  0  0  0  0  0  0  0  0
   -1.9810    0.5919   -0.2546 H   0  0  0  0  0  0  0  0  0  0  0  0
   -3.2668    0.0177    3.2050 H   0  0  0  0  0  0  0  0  0  0  0  0
   -2.2863    1.1878    2.2913 H   0  0  0  0  0  0  0  0  0  0  0  0
   -5.0032   -1.3694    2.9403 H   0  0  0  0  0  0  0  0  0  0  0  0
   -7.1900   -2.4504    2.7050 H   0  0  0  0  0  0  0  0  0  0  0  0
   -8.7984   -1.6696    0.9895 H   0  0  0  0  0  0  0  0  0  0  0  0
   -8.2002    0.2171   -0.5028 H   0  0  0  0  0  0  0  0  0  0  0  0
   -5.9973    1.3195   -0.2883 H   0  0  0  0  0  0  0  0  0  0  0  0
  1  2  1  0
  2  3  1  0
  2  4  1  0
  4  5  1  0
  5  6  2  0
  5  7  1  0
  7  8  1  0
  8  9  1  0
  9 10  1  0
 10 11  2  0
 11 12  1  0
 12 13  1  0
 13 14  1  0
 14 15  1  0
 14 16  1  0
 16 17  1  0
 17 18  1  0
 17 19  1  0
 19 20  1  0
 20 21  2  0
 21 22  1  0
 22 23  1  0
 22 24  1  0
 22 25  1  0
 25 26  1  0
 26 27  1  0
 27 28  2  0
 28 29  1  0
 29 30  2  0
 30 31  1  0
 31 32  2  0
 19 13  1  0
 32 27  1  0
  1 33  1  0
  1 34  1  0
  1 35  1  0
  2 36  1  0
  3 37  1  0
  3 38  1  0
  3 39  1  0
  7 40  1  0
  7 41  1  0
  8 42  1  0
  8 43  1  0
  9 44  1  0
  9 45  1  0
 10 46  1  0
 11 47  1  0
 12 48  1  0
 12 49  1  0
 13 50  1  1
 14 51  1  1
 15 52  1  0
 16 53  1  0
 16 54  1  0
 17 55  1  1
 18 56  1  0
 19 57  1  6
 20 58  1  0
 21 59  1  0
 25 60  1  0
 25 61  1  0
 28 62  1  0
 29 63  1  0
 30 64  1  0
 31 65  1  0
 32 66  1  0
M  END
$$$$
