
     RDKit          3D

 45 48  0  0  0  0  0  0  0  0999 V2000
   -4.4999   -2.8406    0.1869 C   0  0  0  0  0  0  0  0  0  0  0  0
   -3.7098   -2.7222   -1.1112 C   0  0  0  0  0  0  0  0  0  0  0  0
   -2.2847   -2.3567   -0.8314 C   0  0  0  0  0  0  0  0  0  0  0  0
   -1.7542   -1.1093   -0.6121 C   0  0  0  0  0  0  0  0  0  0  0  0
   -2.3858    0.0871   -0.6561 N   0  0  0  0  0  0  0  0  0  0  0  0
   -1.6794    1.2246   -0.3902 C   0  0  0  0  0  0  0  0  0  0  0  0
   -0.3003    1.1367   -0.0859 C   0  0  0  0  0  0  0  0  0  0  0  0
    0.3220   -0.1249   -0.0433 C   0  0  0  0  0  0  0  0  0  0  0  0
    1.7267   -0.2142    0.2717 N   0  0  0  0  0  0  0  0  0  0  0  0
    2.4925   -1.4612    0.2940 C   0  0  0  0  0  0  0  0  0  0  0  0
    3.9385   -1.1898    0.6109 C   0  0  0  0  0  0  0  0  0  0  0  0
    4.8561   -0.8986   -0.4053 C   0  0  0  0  0  0  0  0  0  0  0  0
    6.1483   -0.6186   -0.0946 N   0  0  0  0  0  0  0  0  0  0  0  0
    6.5708   -0.6056    1.1973 C   0  0  0  0  0  0  0  0  0  0  0  0
    7.9323   -0.3102    1.4998 N   0  0  0  0  0  0  0  0  0  0  0  0
    5.6925   -0.8686    2.2007 N   0  0  0  0  0  0  0  0  0  0  0  0
    4.3914   -1.1535    1.9350 C   0  0  0  0  0  0  0  0  0  0  0  0
   -0.4539   -1.2159   -0.3113 N   0  0  0  0  0  0  0  0  0  0  0  0
   -0.1055   -2.4934   -0.3095 N   0  0  0  0  0  0  0  0  0  0  0  0
   -1.2109   -3.2128   -0.6194 C   0  0  0  0  0  0  0  0  0  0  0  0
   -2.3679    2.5352   -0.4480 C   0  0  0  0  0  0  0  0  0  0  0  0
   -3.2763    2.8084   -1.4906 C   0  0  0  0  0  0  0  0  0  0  0  0
   -3.5084    1.8940   -2.4668 F   0  0  0  0  0  0  0  0  0  0  0  0
   -3.9333    4.0416   -1.5490 C   0  0  0  0  0  0  0  0  0  0  0  0
   -3.7004    5.0089   -0.5701 C   0  0  0  0  0  0  0  0  0  0  0  0
   -2.8128    4.7455    0.4745 C   0  0  0  0  0  0  0  0  0  0  0  0
   -2.1494    3.5161    0.5426 C   0  0  0  0  0  0  0  0  0  0  0  0
   -1.3312    3.2729    1.5978 F   0  0  0  0  0  0  0  0  0  0  0  0
   -4.0592   -3.6278    0.8356 H   0  0  0  0  0  0  0  0  0  0  0  0
   -5.5512   -3.1149   -0.0416 H   0  0  0  0  0  0  0  0  0  0  0  0
   -4.4951   -1.8717    0.7309 H   0  0  0  0  0  0  0  0  0  0  0  0
   -3.7452   -3.6906   -1.6549 H   0  0  0  0  0  0  0  0  0  0  0  0
   -4.1729   -1.9452   -1.7566 H   0  0  0  0  0  0  0  0  0  0  0  0
    0.2816    2.0319    0.0943 H   0  0  0  0  0  0  0  0  0  0  0  0
    2.2289    0.6787    0.4854 H   0  0  0  0  0  0  0  0  0  0  0  0
    2.4217   -1.9588   -0.6974 H   0  0  0  0  0  0  0  0  0  0  0  0
    2.0696   -2.1433    1.0628 H   0  0  0  0  0  0  0  0  0  0  0  0
    4.5453   -0.8929   -1.4422 H   0  0  0  0  0  0  0  0  0  0  0  0
    8.6115   -0.1051    0.7338 H   0  0  0  0  0  0  0  0  0  0  0  0
    8.2627   -0.2964    2.4902 H   0  0  0  0  0  0  0  0  0  0  0  0
    3.7120   -1.3500    2.7544 H   0  0  0  0  0  0  0  0  0  0  0  0
   -1.2362   -4.2929   -0.6752 H   0  0  0  0  0  0  0  0  0  0  0  0
   -4.6234    4.2492   -2.3567 H   0  0  0  0  0  0  0  0  0  0  0  0
   -4.2121    5.9615   -0.6181 H   0  0  0  0  0  0  0  0  0  0  0  0
   -2.6452    5.4935    1.2389 H   0  0  0  0  0  0  0  0  0  0  0  0
  1  2  1  0
  2  3  1  0
  3  4  2  0
  4  5  1  0
  5  6  2  0
  6  7  1  0
  7  8  2  0
  8  9  1  0
  9 10  1  0
 10 11  1  0
 11 12  2  0
 12 13  1  0
 13 14  2  0
 14 15  1  0
 14 16  1  0
 16 17  2  0
  8 18  1  0
 18 19  1  0
 19 20  2  0
  6 21  1  0
 21 22  2  0
 22 23  1  0
 22 24  1  0
 24 25  2  0
 25 26  1  0
 26 27  2  0
 27 28  1  0
 20  3  1  0
 27 21  1  0
 18  4  1  0
 17 11  1  0
  1 29  1  0
  1 30  1  0
  1 31  1  0
  2 32  1  0
  2 33  1  0
  7 34  1  0
  9 35  1  0
 10 36  1  0
 10 37  1  0
 12 38  1  0
 15 39  1  0
 15 40  1  0
 17 41  1  0
 20 42  1  0
 24 43  1  0
 25 44  1  0
 26 45  1  0
M  END
$$$$
