
     RDKit          3D

 73 78  0  0  0  0  0  0  0  0999 V2000
    2.0360   -2.3363   -1.1918 C   0  0  1  0  0  0  0  0  0  0  0  0
    1.0998   -3.4163   -1.7499 C   0  0  0  0  0  0  0  0  0  0  0  0
    1.0470   -3.3432   -3.1489 O   0  0  0  0  0  0  0  0  0  0  0  0
    1.5989   -1.0547   -1.5981 O   0  0  0  0  0  0  0  0  0  0  0  0
    1.4878   -0.2444   -0.4444 C   0  0  1  0  0  0  0  0  0  0  0  0
    0.0698   -0.0712   -0.0815 N   0  0  0  0  0  0  0  0  0  0  0  0
   -0.4320    0.5218    1.0368 C   0  0  0  0  0  0  0  0  0  0  0  0
   -1.7872    0.6449    1.0293 N   0  0  0  0  0  0  0  0  0  0  0  0
   -2.1270    0.1186   -0.1600 C   0  0  0  0  0  0  0  0  0  0  0  0
   -3.3842    0.0031   -0.7445 C   0  0  0  0  0  0  0  0  0  0  0  0
   -4.5694    0.4375   -0.0610 N   0  0  0  0  0  0  0  0  0  0  0  0
   -5.8983    0.3850   -0.6789 C   0  0  2  0  0  0  0  0  0  0  0  0
   -6.1140    1.6621   -1.5079 C   0  0  0  0  0  0  0  0  0  0  0  0
   -7.5740    1.7948   -1.9340 C   0  0  0  0  0  0  0  0  0  0  0  0
   -8.4673    1.9487   -0.7026 C   0  0  0  0  0  0  0  0  0  0  0  0
   -8.2057    0.8780    0.3287 C   0  0  0  0  0  0  0  0  0  0  0  0
   -9.1849    0.6253    1.3033 C   0  0  0  0  0  0  0  0  0  0  0  0
   -8.9710   -0.3388    2.2896 C   0  0  0  0  0  0  0  0  0  0  0  0
   -7.7773   -1.0589    2.3156 C   0  0  0  0  0  0  0  0  0  0  0  0
   -6.7873   -0.8085    1.3635 C   0  0  0  0  0  0  0  0  0  0  0  0
   -6.9713    0.1820    0.3803 C   0  0  0  0  0  0  0  0  0  0  0  0
   -3.4460   -0.5324   -2.0019 N   0  0  0  0  0  0  0  0  0  0  0  0
   -2.3159   -0.9345   -2.6657 C   0  0  0  0  0  0  0  0  0  0  0  0
   -1.0878   -0.8105   -2.0798 N   0  0  0  0  0  0  0  0  0  0  0  0
   -1.0250   -0.2934   -0.8282 C   0  0  0  0  0  0  0  0  0  0  0  0
    2.2791   -0.9193    0.6817 C   0  0  2  0  0  0  0  0  0  0  0  0
    3.6977   -0.5539    0.6003 N   0  0  0  0  0  0  0  0  0  0  0  0
    4.2346    0.5734    0.9746 C   0  0  0  0  0  0  0  0  0  0  0  0
    3.4628    1.5983    1.5307 O   0  0  0  0  0  0  0  0  0  0  0  0
    5.6954    0.7790    0.8104 C   0  0  0  0  0  0  0  0  0  0  0  0
    6.2888    1.9852    1.2229 C   0  0  0  0  0  0  0  0  0  0  0  0
    7.6724    2.1933    1.0714 C   0  0  0  0  0  0  0  0  0  0  0  0
    8.3032    3.3816    1.4701 O   0  0  0  0  0  0  0  0  0  0  0  0
    7.6336    4.4908    2.0609 C   0  0  0  0  0  0  0  0  0  0  0  0
    8.4584    1.1865    0.5039 C   0  0  0  0  0  0  0  0  0  0  0  0
    7.8908   -0.0203    0.0859 C   0  0  0  0  0  0  0  0  0  0  0  0
    8.7338   -0.9907   -0.4767 O   0  0  0  0  0  0  0  0  0  0  0  0
    8.2979   -2.2624   -0.9465 C   0  0  0  0  0  0  0  0  0  0  0  0
    6.5068   -0.2211    0.2409 C   0  0  0  0  0  0  0  0  0  0  0  0
    2.1025   -2.3732    0.3342 C   0  0  2  0  0  0  0  0  0  0  0  0
    3.1762   -3.1540    0.7939 O   0  0  0  0  0  0  0  0  0  0  0  0
    3.0559   -2.4981   -1.6084 H   0  0  0  0  0  0  0  0  0  0  0  0
    1.4456   -4.4261   -1.4314 H   0  0  0  0  0  0  0  0  0  0  0  0
    0.0740   -3.2680   -1.3505 H   0  0  0  0  0  0  0  0  0  0  0  0
    1.8958   -3.7327   -3.4858 H   0  0  0  0  0  0  0  0  0  0  0  0
    1.9107    0.7574   -0.6734 H   0  0  0  0  0  0  0  0  0  0  0  0
    0.1780    0.8847    1.8519 H   0  0  0  0  0  0  0  0  0  0  0  0
   -4.4678    0.9224    0.8603 H   0  0  0  0  0  0  0  0  0  0  0  0
   -5.9584   -0.4912   -1.3622 H   0  0  0  0  0  0  0  0  0  0  0  0
   -5.4704    1.6273   -2.4136 H   0  0  0  0  0  0  0  0  0  0  0  0
   -5.8198    2.5569   -0.9148 H   0  0  0  0  0  0  0  0  0  0  0  0
   -7.6902    2.6874   -2.5859 H   0  0  0  0  0  0  0  0  0  0  0  0
   -7.8817    0.8982   -2.5163 H   0  0  0  0  0  0  0  0  0  0  0  0
   -8.2870    2.9421   -0.2374 H   0  0  0  0  0  0  0  0  0  0  0  0
   -9.5294    1.9105   -1.0294 H   0  0  0  0  0  0  0  0  0  0  0  0
  -10.1187    1.1742    1.2958 H   0  0  0  0  0  0  0  0  0  0  0  0
   -9.7348   -0.5317    3.0319 H   0  0  0  0  0  0  0  0  0  0  0  0
   -7.6194   -1.8155    3.0733 H   0  0  0  0  0  0  0  0  0  0  0  0
   -5.8742   -1.3902    1.3926 H   0  0  0  0  0  0  0  0  0  0  0  0
   -2.3964   -1.3498   -3.6607 H   0  0  0  0  0  0  0  0  0  0  0  0
    1.8906   -0.7201    1.7034 H   0  0  0  0  0  0  0  0  0  0  0  0
    2.4648    1.5286    1.6707 H   0  0  0  0  0  0  0  0  0  0  0  0
    5.6741    2.7593    1.6610 H   0  0  0  0  0  0  0  0  0  0  0  0
    8.3736    5.2893    2.2738 H   0  0  0  0  0  0  0  0  0  0  0  0
    6.8693    4.8918    1.3622 H   0  0  0  0  0  0  0  0  0  0  0  0
    7.1567    4.1846    3.0158 H   0  0  0  0  0  0  0  0  0  0  0  0
    9.5234    1.3440    0.3860 H   0  0  0  0  0  0  0  0  0  0  0  0
    7.5603   -2.1344   -1.7667 H   0  0  0  0  0  0  0  0  0  0  0  0
    9.1712   -2.8227   -1.3387 H   0  0  0  0  0  0  0  0  0  0  0  0
    7.8478   -2.8435   -0.1140 H   0  0  0  0  0  0  0  0  0  0  0  0
    6.0610   -1.1522   -0.0810 H   0  0  0  0  0  0  0  0  0  0  0  0
    1.1422   -2.7327    0.7766 H   0  0  0  0  0  0  0  0  0  0  0  0
    2.9057   -4.1012    0.6730 H   0  0  0  0  0  0  0  0  0  0  0  0
  1  2  1  0
  2  3  1  0
  1  4  1  0
  4  5  1  0
  5  6  1  0
  6  7  1  0
  7  8  2  0
  8  9  1  0
  9 10  2  0
 10 11  1  0
 11 12  1  0
 12 13  1  0
 13 14  1  0
 14 15  1  0
 15 16  1  0
 16 17  2  0
 17 18  1  0
 18 19  2  0
 19 20  1  0
 20 21  2  0
 10 22  1  0
 22 23  2  0
 23 24  1  0
 24 25  2  0
  5 26  1  0
 26 27  1  0
 27 28  2  3
 28 29  1  0
 28 30  1  0
 30 31  2  0
 31 32  1  0
 32 33  1  0
 33 34  1  0
 32 35  2  0
 35 36  1  0
 36 37  1  0
 37 38  1  0
 36 39  2  0
 26 40  1  0
 40 41  1  0
 40  1  1  0
 25  6  1  0
 39 30  1  0
 25  9  1  0
 21 12  1  0
 21 16  1  0
  1 42  1  6
  2 43  1  0
  2 44  1  0
  3 45  1  0
  5 46  1  6
  7 47  1  0
 11 48  1  0
 12 49  1  6
 13 50  1  0
 13 51  1  0
 14 52  1  0
 14 53  1  0
 15 54  1  0
 15 55  1  0
 17 56  1  0
 18 57  1  0
 19 58  1  0
 20 59  1  0
 23 60  1  0
 26 61  1  1
 29 62  1  0
 31 63  1  0
 34 64  1  0
 34 65  1  0
 34 66  1  0
 35 67  1  0
 38 68  1  0
 38 69  1  0
 38 70  1  0
 39 71  1  0
 40 72  1  1
 41 73  1  0
M  END
$$$$
