
     RDKit          3D

 73 69  0  0  0  0  0  0  0  0999 V2000
    0.0000    0.0000    0.0000 Cr  0  0  0  0  0 15  0  0  0  0  0  0
    2.4327   -1.4504   -1.0037 O   0  0  0  0  0  0  0  0  0  0  0  0
    2.2625   -0.0682   -1.1686 C   0  0  0  0  0  0  0  0  0  0  0  0
    1.7984    0.5998    0.1413 C   0  0  1  0  0  0  0  0  0  0  0  0
    1.5763    1.9692   -0.0810 O   0  0  0  0  0  0  0  0  0  0  0  0
    0.5310   -0.0573    0.7566 C   0  0  1  0  0  0  0  0  0  0  0  0
    0.2882    0.4741    2.0370 O   0  0  0  0  0  0  0  0  0  0  0  0
   -0.7372    0.0305   -0.1397 C   0  0  2  0  0  0  0  0  0  0  0  0
   -1.0902    1.3759   -0.3509 O   0  0  0  0  0  0  0  0  0  0  0  0
   -1.9254   -0.7396    0.4811 C   0  0  1  0  0  0  0  0  0  0  0  0
   -2.4007   -0.0638    1.6172 O   0  0  0  0  0  0  0  0  0  0  0  0
   -3.0364   -0.8894   -0.5211 C   0  0  0  0  0  0  0  0  0  0  0  0
   -3.9965    0.1061   -0.6588 O   0  0  0  0  0  1  0  0  0  0  0  0
   -3.0758   -1.8985   -1.2733 O   0  0  0  0  0  0  0  0  0  0  0  0
    3.0710    0.1597   -1.5028 O   0  0  0  0  0  0  0  0  0  0  0  0
    1.8064    0.3357   -0.9212 C   0  0  0  0  0  0  0  0  0  0  0  0
    1.5529   -0.7418    0.1443 C   0  0  1  0  0  0  0  0  0  0  0  0
    2.6269   -0.7446    1.0513 O   0  0  0  0  0  0  0  0  0  0  0  0
    0.2201   -0.5375    0.9243 C   0  0  1  0  0  0  0  0  0  0  0  0
    0.2600    0.6646    1.6532 O   0  0  0  0  0  0  0  0  0  0  0  0
   -1.0835   -0.6275    0.0675 C   0  0  2  0  0  0  0  0  0  0  0  0
   -0.8873   -1.5232   -1.0006 O   0  0  0  0  0  0  0  0  0  0  0  0
   -1.6053    0.7388   -0.4726 C   0  0  1  0  0  0  0  0  0  0  0  0
   -2.5407    0.5474   -1.5048 O   0  0  0  0  0  0  0  0  0  0  0  0
   -2.2277    1.5822    0.6116 C   0  0  0  0  0  0  0  0  0  0  0  0
   -3.2789    1.0849    1.3729 O   0  0  0  0  0  1  0  0  0  0  0  0
   -1.8161    2.7548    0.8155 O   0  0  0  0  0  0  0  0  0  0  0  0
    3.6856    0.9003   -0.2069 O   0  0  0  0  0  0  0  0  0  0  0  0
    2.4318    0.3956    0.1672 C   0  0  0  0  0  0  0  0  0  0  0  0
    1.6030    0.0407   -1.0865 C   0  0  1  0  0  0  0  0  0  0  0  0
    2.3377   -0.8027   -1.9391 O   0  0  0  0  0  0  0  0  0  0  0  0
    0.2020   -0.5766   -0.8004 C   0  0  1  0  0  0  0  0  0  0  0  0
    0.2897   -1.8671   -0.2445 O   0  0  0  0  0  0  0  0  0  0  0  0
   -0.7431    0.3505    0.0196 C   0  0  2  0  0  0  0  0  0  0  0  0
   -0.3952    0.3774    1.3848 O   0  0  0  0  0  0  0  0  0  0  0  0
   -2.2353   -0.0162   -0.1809 C   0  0  1  0  0  0  0  0  0  0  0  0
   -2.4855   -1.3247    0.2663 O   0  0  0  0  0  0  0  0  0  0  0  0
   -3.1201    0.9585    0.5456 C   0  0  0  0  0  0  0  0  0  0  0  0
   -3.6006    2.0824   -0.1145 O   0  0  0  0  0  1  0  0  0  0  0  0
   -3.3930    0.7892    1.7637 O   0  0  0  0  0  0  0  0  0  0  0  0
    3.2581   -1.5722   -0.4656 H   0  0  0  0  0  0  0  0  0  0  0  0
    1.5254    0.1124   -1.9778 H   0  0  0  0  0  0  0  0  0  0  0  0
    3.2208    0.3919   -1.5012 H   0  0  0  0  0  0  0  0  0  0  0  0
    2.6193    0.4813    0.8879 H   0  0  0  0  0  0  0  0  0  0  0  0
    2.4683    2.3982   -0.1602 H   0  0  0  0  0  0  0  0  0  0  0  0
    0.7601   -1.1357    0.9013 H   0  0  0  0  0  0  0  0  0  0  0  0
    0.0775    1.4381    1.9319 H   0  0  0  0  0  0  0  0  0  0  0  0
   -0.4952   -0.4591   -1.1117 H   0  0  0  0  0  0  0  0  0  0  0  0
   -1.5313    1.4273   -1.2387 H   0  0  0  0  0  0  0  0  0  0  0  0
   -1.5759   -1.7587    0.7714 H   0  0  0  0  0  0  0  0  0  0  0  0
   -2.9542   -0.7121    2.1267 H   0  0  0  0  0  0  0  0  0  0  0  0
    3.7246    0.6252   -0.9181 H   0  0  0  0  0  0  0  0  0  0  0  0
    1.7185    1.3554   -0.4799 H   0  0  0  0  0  0  0  0  0  0  0  0
    1.0541    0.2393   -1.7301 H   0  0  0  0  0  0  0  0  0  0  0  0
    1.5245   -1.7276   -0.3766 H   0  0  0  0  0  0  0  0  0  0  0  0
    2.6084   -1.6199    1.5200 H   0  0  0  0  0  0  0  0  0  0  0  0
    0.1572   -1.3883    1.6454 H   0  0  0  0  0  0  0  0  0  0  0  0
    0.8046    0.4999    2.4669 H   0  0  0  0  0  0  0  0  0  0  0  0
   -1.8744   -1.0428    0.7393 H   0  0  0  0  0  0  0  0  0  0  0  0
   -1.7564   -1.9681   -1.1818 H   0  0  0  0  0  0  0  0  0  0  0  0
   -0.7600    1.3086   -0.9050 H   0  0  0  0  0  0  0  0  0  0  0  0
   -3.2988    0.0245   -1.1319 H   0  0  0  0  0  0  0  0  0  0  0  0
    3.5345    1.8248   -0.5361 H   0  0  0  0  0  0  0  0  0  0  0  0
    2.5985   -0.5050    0.7923 H   0  0  0  0  0  0  0  0  0  0  0  0
    1.9011    1.1506    0.7873 H   0  0  0  0  0  0  0  0  0  0  0  0
    1.4336    0.9903   -1.6403 H   0  0  0  0  0  0  0  0  0  0  0  0
    2.5643   -1.6232   -1.4281 H   0  0  0  0  0  0  0  0  0  0  0  0
   -0.2641   -0.7001   -1.8031 H   0  0  0  0  0  0  0  0  0  0  0  0
    0.7748   -1.8030    0.6159 H   0  0  0  0  0  0  0  0  0  0  0  0
   -0.6149    1.3836   -0.3735 H   0  0  0  0  0  0  0  0  0  0  0  0
   -0.6802   -0.4783    1.7971 H   0  0  0  0  0  0  0  0  0  0  0  0
   -2.4675    0.0527   -1.2696 H   0  0  0  0  0  0  0  0  0  0  0  0
   -3.3570   -1.5996   -0.1226 H   0  0  0  0  0  0  0  0  0  0  0  0
  2  3  1  0
  3  4  1  0
  4  5  1  0
  4  6  1  0
  6  7  1  0
  6  8  1  0
  8  9  1  0
  8 10  1  0
 10 11  1  0
 10 12  1  0
 12 13  1  0
 12 14  2  0
 15 16  1  0
 16 17  1  0
 17 18  1  0
 17 19  1  0
 19 20  1  0
 19 21  1  0
 21 22  1  0
 21 23  1  0
 23 24  1  0
 23 25  1  0
 25 26  1  0
 25 27  2  0
 28 29  1  0
 29 30  1  0
 30 31  1  0
 30 32  1  0
 32 33  1  0
 32 34  1  0
 34 35  1  0
 34 36  1  0
 36 37  1  0
 36 38  1  0
 38 39  1  0
 38 40  2  0
  2 41  1  0
  3 42  1  0
  3 43  1  0
  4 44  1  1
  5 45  1  0
  6 46  1  1
  7 47  1  0
  8 48  1  6
  9 49  1  0
 10 50  1  1
 11 51  1  0
 15 52  1  0
 16 53  1  0
 16 54  1  0
 17 55  1  6
 18 56  1  0
 19 57  1  1
 20 58  1  0
 21 59  1  1
 22 60  1  0
 23 61  1  6
 24 62  1  0
 28 63  1  0
 29 64  1  0
 29 65  1  0
 30 66  1  6
 31 67  1  0
 32 68  1  6
 33 69  1  0
 34 70  1  6
 35 71  1  0
 36 72  1  6
 37 73  1  0
M  CHG  4   1   3  13  -1  26  -1  39  -1
M  END
$$$$
