
     RDKit          3D

 56 57  0  0  0  0  0  0  0  0999 V2000
   -3.2114   -3.7382    0.3969 C   0  0  2  0  0  0  0  0  0  0  0  0
   -3.4576   -5.2501    0.3700 C   0  0  0  0  0  0  0  0  0  0  0  0
   -4.4066   -3.0003   -0.0118 N   0  0  0  0  0  0  0  0  0  0  0  0
   -1.8110   -3.2989   -0.6920 P   0  0  2  0  0  5  0  0  0  0  0  0
   -2.0860   -3.9302   -2.2387 O   0  0  0  0  0  0  0  0  0  0  0  0
   -0.5451   -3.9156   -0.1436 O   0  0  0  0  0  0  0  0  0  0  0  0
   -1.6224   -1.4827   -0.8348 C   0  0  0  0  0  0  0  0  0  0  0  0
   -1.5722   -0.7524    0.5293 C   0  0  1  0  0  0  0  0  0  0  0  0
   -0.2675   -0.9926    1.3282 C   0  0  0  0  0  0  0  0  0  0  0  0
    0.9682   -0.4182    0.6723 C   0  0  0  0  0  0  0  0  0  0  0  0
    1.3516    0.9076    0.9271 C   0  0  0  0  0  0  0  0  0  0  0  0
    2.4790    1.4517    0.3070 C   0  0  0  0  0  0  0  0  0  0  0  0
    3.2506    0.6773   -0.5773 C   0  0  0  0  0  0  0  0  0  0  0  0
    2.8705   -0.6543   -0.8224 C   0  0  0  0  0  0  0  0  0  0  0  0
    1.7422   -1.1966   -0.2014 C   0  0  0  0  0  0  0  0  0  0  0  0
    4.4472    1.2556   -1.2405 C   0  0  0  0  0  0  0  0  0  0  0  0
    4.7245    0.9708   -2.5913 C   0  0  0  0  0  0  0  0  0  0  0  0
    5.8509    1.5175   -3.2136 C   0  0  0  0  0  0  0  0  0  0  0  0
    6.7120    2.3517   -2.4974 C   0  0  0  0  0  0  0  0  0  0  0  0
    6.4482    2.6416   -1.1569 C   0  0  0  0  0  0  0  0  0  0  0  0
    5.3228    2.0985   -0.5296 C   0  0  0  0  0  0  0  0  0  0  0  0
   -1.8244    0.7283    0.3585 C   0  0  0  0  0  0  0  0  0  0  0  0
   -1.3885    1.3294   -0.6625 O   0  0  0  0  0  0  0  0  0  0  0  0
   -2.5051    1.4624    1.3871 N   0  0  0  0  0  0  0  0  0  0  0  0
   -2.6884    2.9141    1.3131 C   0  0  1  0  0  0  0  0  0  0  0  0
   -3.7960    3.3661    2.2690 C   0  0  0  0  0  0  0  0  0  0  0  0
   -1.3965    3.6067    1.6379 C   0  0  0  0  0  0  0  0  0  0  0  0
   -0.7576    4.3702    0.6660 O   0  0  0  0  0  0  0  0  0  0  0  0
   -0.8768    3.4817    2.7798 O   0  0  0  0  0  0  0  0  0  0  0  0
   -2.9452   -3.4460    1.4356 H   0  0  0  0  0  0  0  0  0  0  0  0
   -3.7157   -5.5891   -0.6559 H   0  0  0  0  0  0  0  0  0  0  0  0
   -4.2939   -5.5099    1.0531 H   0  0  0  0  0  0  0  0  0  0  0  0
   -2.5495   -5.7913    0.7109 H   0  0  0  0  0  0  0  0  0  0  0  0
   -4.7390   -3.3601   -0.9361 H   0  0  0  0  0  0  0  0  0  0  0  0
   -5.1654   -3.1829    0.6845 H   0  0  0  0  0  0  0  0  0  0  0  0
   -2.8542   -3.4162   -2.5937 H   0  0  0  0  0  0  0  0  0  0  0  0
   -2.5034   -1.1159   -1.4047 H   0  0  0  0  0  0  0  0  0  0  0  0
   -0.7233   -1.2553   -1.4432 H   0  0  0  0  0  0  0  0  0  0  0  0
   -2.4093   -1.1448    1.1442 H   0  0  0  0  0  0  0  0  0  0  0  0
   -0.3834   -0.5400    2.3380 H   0  0  0  0  0  0  0  0  0  0  0  0
   -0.1270   -2.0767    1.5134 H   0  0  0  0  0  0  0  0  0  0  0  0
    0.7724    1.5236    1.6022 H   0  0  0  0  0  0  0  0  0  0  0  0
    2.7360    2.4846    0.5055 H   0  0  0  0  0  0  0  0  0  0  0  0
    3.4556   -1.2826   -1.4822 H   0  0  0  0  0  0  0  0  0  0  0  0
    1.4741   -2.2246   -0.4039 H   0  0  0  0  0  0  0  0  0  0  0  0
    4.0614    0.3407   -3.1706 H   0  0  0  0  0  0  0  0  0  0  0  0
    6.0543    1.2966   -4.2535 H   0  0  0  0  0  0  0  0  0  0  0  0
    7.5836    2.7735   -2.9810 H   0  0  0  0  0  0  0  0  0  0  0  0
    7.1184    3.2852   -0.6018 H   0  0  0  0  0  0  0  0  0  0  0  0
    5.1472    2.3231    0.5149 H   0  0  0  0  0  0  0  0  0  0  0  0
   -2.8314    0.9468    2.2364 H   0  0  0  0  0  0  0  0  0  0  0  0
   -3.0049    3.1911    0.2830 H   0  0  0  0  0  0  0  0  0  0  0  0
   -3.5414    3.1081    3.3197 H   0  0  0  0  0  0  0  0  0  0  0  0
   -4.7508    2.8655    2.0012 H   0  0  0  0  0  0  0  0  0  0  0  0
   -3.9427    4.4649    2.1925 H   0  0  0  0  0  0  0  0  0  0  0  0
    0.1227    4.8308    0.8633 H   0  0  0  0  0  0  0  0  0  0  0  0
  1  2  1  0
  1  3  1  0
  1  4  1  0
  4  5  1  6
  4  6  2  0
  4  7  1  0
  7  8  1  0
  8  9  1  0
  9 10  1  0
 10 11  2  0
 11 12  1  0
 12 13  2  0
 13 14  1  0
 14 15  2  0
 13 16  1  0
 16 17  2  0
 17 18  1  0
 18 19  2  0
 19 20  1  0
 20 21  2  0
  8 22  1  0
 22 23  2  0
 22 24  1  0
 24 25  1  0
 25 26  1  0
 25 27  1  0
 27 28  1  0
 27 29  2  0
 15 10  1  0
 21 16  1  0
  1 30  1  1
  2 31  1  0
  2 32  1  0
  2 33  1  0
  3 34  1  0
  3 35  1  0
  5 36  1  0
  7 37  1  0
  7 38  1  0
  8 39  1  1
  9 40  1  0
  9 41  1  0
 11 42  1  0
 12 43  1  0
 14 44  1  0
 15 45  1  0
 17 46  1  0
 18 47  1  0
 19 48  1  0
 20 49  1  0
 21 50  1  0
 24 51  1  0
 25 52  1  6
 26 53  1  0
 26 54  1  0
 26 55  1  0
 28 56  1  0
M  END
$$$$
