
     RDKit          3D

108112  0  0  0  0  0  0  0  0999 V2000
   -4.9869   -1.0529    0.4334 C   0  0  1  0  0  0  0  0  0  0  0  0
   -5.4723   -1.9591    1.5786 C   0  0  0  0  0  0  0  0  0  0  0  0
   -6.0581   -0.4025   -0.2365 O   0  0  0  0  0  0  0  0  0  0  0  0
   -6.6419    0.6320    0.5407 C   0  0  2  0  0  0  0  0  0  0  0  0
   -7.7344    1.1858   -0.1689 O   0  0  0  0  0  0  0  0  0  0  0  0
   -8.8419    0.2955   -0.2063 C   0  0  2  0  0  0  0  0  0  0  0  0
   -9.3761    0.2130   -1.6686 C   0  0  1  0  0  0  0  0  0  0  0  0
   -8.5924   -0.8146   -2.5020 C   0  0  0  0  0  0  0  0  0  0  0  0
   -9.0751   -0.8512   -3.8179 O   0  0  0  0  0  0  0  0  0  0  0  0
  -10.7783   -0.0283   -1.7739 O   0  0  0  0  0  0  0  0  0  0  0  0
  -11.2632   -0.8443   -0.7207 C   0  0  2  0  0  0  0  0  0  0  0  0
  -12.5719   -1.2693   -1.0037 O   0  0  0  0  0  0  0  0  0  0  0  0
  -11.2095   -0.0859    0.6283 C   0  0  2  0  0  0  0  0  0  0  0  0
  -12.3685    0.6918    0.7934 O   0  0  0  0  0  0  0  0  0  0  0  0
   -9.9594    0.8272    0.7049 C   0  0  1  0  0  0  0  0  0  0  0  0
   -9.4964    0.8981    2.0286 O   0  0  0  0  0  0  0  0  0  0  0  0
   -5.6229    1.7486    0.8016 C   0  0  2  0  0  0  0  0  0  0  0  0
   -5.2249    2.3157   -0.4210 O   0  0  0  0  0  0  0  0  0  0  0  0
   -4.4034    1.1824    1.5550 C   0  0  1  0  0  0  0  0  0  0  0  0
   -4.7548    0.8645    2.8781 O   0  0  0  0  0  0  0  0  0  0  0  0
   -3.8458   -0.0716    0.8478 C   0  0  2  0  0  0  0  0  0  0  0  0
   -3.0618    0.3637   -0.3338 N   0  0  0  0  0  0  0  0  0  0  0  0
   -1.6325   -0.0159   -0.3760 C   0  0  1  0  0  0  0  0  0  0  0  0
   -0.8634    0.3877    0.8597 C   0  0  0  0  0  0  0  0  0  0  0  0
    0.4176   -0.0085    0.9895 C   0  0  0  0  0  0  0  0  0  0  0  0
    1.1328    0.2556    2.2951 C   0  0  0  0  0  0  0  0  0  0  0  0
    0.4405   -0.3660    3.3427 O   0  0  0  0  0  0  0  0  0  0  0  0
    1.0618   -0.7319   -0.1967 C   0  0  1  0  0  0  0  0  0  0  0  0
    2.3477   -1.2521    0.1175 O   0  0  0  0  0  0  0  0  0  0  0  0
    3.3849   -0.3055   -0.1176 C   0  0  1  0  0  0  0  0  0  0  0  0
    4.3581   -0.4927    0.9038 O   0  0  0  0  0  0  0  0  0  0  0  0
    5.5465    0.2596    0.6954 C   0  0  2  0  0  0  0  0  0  0  0  0
    5.2902    1.7811    0.7692 C   0  0  0  0  0  0  0  0  0  0  0  0
    6.4936    2.4632    0.9894 O   0  0  0  0  0  0  0  0  0  0  0  0
    6.2950   -0.1784   -0.6012 C   0  0  1  0  0  0  0  0  0  0  0  0
    7.4551   -0.9267   -0.2639 O   0  0  0  0  0  0  0  0  0  0  0  0
    8.6129   -0.1123   -0.1802 C   0  0  1  0  0  0  0  0  0  0  0  0
    9.5118   -0.7195    0.7305 O   0  0  0  0  0  0  0  0  0  0  0  0
   10.6064    0.1320    1.0651 C   0  0  2  0  0  0  0  0  0  0  0  0
   10.2696    0.9626    2.3131 C   0  0  0  0  0  0  0  0  0  0  0  0
   11.4172    1.6185    2.7777 O   0  0  0  0  0  0  0  0  0  0  0  0
   11.1001    1.0203   -0.1204 C   0  0  1  0  0  0  0  0  0  0  0  0
   12.4696    1.3185    0.0039 O   0  0  0  0  0  0  0  0  0  0  0  0
   10.8026    0.3210   -1.4570 C   0  0  2  0  0  0  0  0  0  0  0  0
   11.2202    1.1393   -2.5187 O   0  0  0  0  0  0  0  0  0  0  0  0
    9.2863    0.0188   -1.5758 C   0  0  1  0  0  0  0  0  0  0  0  0
    9.0815   -1.1322   -2.3583 O   0  0  0  0  0  0  0  0  0  0  0  0
    5.4008   -1.0731   -1.4733 C   0  0  2  0  0  0  0  0  0  0  0  0
    5.9585   -1.1657   -2.7600 O   0  0  0  0  0  0  0  0  0  0  0  0
    3.9846   -0.4844   -1.5477 C   0  0  1  0  0  0  0  0  0  0  0  0
    3.1679   -1.3159   -2.3332 O   0  0  0  0  0  0  0  0  0  0  0  0
    0.1468   -1.8967   -0.6580 C   0  0  2  0  0  0  0  0  0  0  0  0
    0.5685   -2.3363   -1.9232 O   0  0  0  0  0  0  0  0  0  0  0  0
   -1.3787   -1.5175   -0.7066 C   0  0  1  0  0  0  0  0  0  0  0  0
   -2.1098   -2.3697    0.1393 O   0  0  0  0  0  0  0  0  0  0  0  0
   -4.5542   -1.7585   -0.3075 H   0  0  0  0  0  0  0  0  0  0  0  0
   -4.6504   -2.6362    1.8951 H   0  0  0  0  0  0  0  0  0  0  0  0
   -5.7983   -1.3836    2.4662 H   0  0  0  0  0  0  0  0  0  0  0  0
   -6.3216   -2.5828    1.2277 H   0  0  0  0  0  0  0  0  0  0  0  0
   -6.9977    0.2526    1.5259 H   0  0  0  0  0  0  0  0  0  0  0  0
   -8.5888   -0.7394    0.1374 H   0  0  0  0  0  0  0  0  0  0  0  0
   -9.2007    1.2075   -2.1360 H   0  0  0  0  0  0  0  0  0  0  0  0
   -8.7018   -1.8266   -2.0590 H   0  0  0  0  0  0  0  0  0  0  0  0
   -7.5079   -0.5620   -2.5018 H   0  0  0  0  0  0  0  0  0  0  0  0
   -8.7292   -0.0379   -4.2703 H   0  0  0  0  0  0  0  0  0  0  0  0
  -10.6437   -1.7666   -0.6405 H   0  0  0  0  0  0  0  0  0  0  0  0
  -13.0692   -0.4874   -1.3604 H   0  0  0  0  0  0  0  0  0  0  0  0
  -11.1613   -0.8560    1.4348 H   0  0  0  0  0  0  0  0  0  0  0  0
  -12.4402    0.8988    1.7617 H   0  0  0  0  0  0  0  0  0  0  0  0
  -10.2239    1.8518    0.3470 H   0  0  0  0  0  0  0  0  0  0  0  0
  -10.1085    1.5103    2.5144 H   0  0  0  0  0  0  0  0  0  0  0  0
   -6.1133    2.5303    1.4285 H   0  0  0  0  0  0  0  0  0  0  0  0
   -4.7913    3.1829   -0.2072 H   0  0  0  0  0  0  0  0  0  0  0  0
   -3.6028    1.9592    1.5797 H   0  0  0  0  0  0  0  0  0  0  0  0
   -4.8377    1.7229    3.3702 H   0  0  0  0  0  0  0  0  0  0  0  0
   -3.1933   -0.5915    1.5802 H   0  0  0  0  0  0  0  0  0  0  0  0
   -3.5206    0.1001   -1.2376 H   0  0  0  0  0  0  0  0  0  0  0  0
   -1.1887    0.5683   -1.2129 H   0  0  0  0  0  0  0  0  0  0  0  0
   -1.3536    0.9263    1.6653 H   0  0  0  0  0  0  0  0  0  0  0  0
    1.1716    1.3546    2.4671 H   0  0  0  0  0  0  0  0  0  0  0  0
    2.1728   -0.1229    2.2829 H   0  0  0  0  0  0  0  0  0  0  0  0
    0.9183   -0.1170    4.1763 H   0  0  0  0  0  0  0  0  0  0  0  0
    1.1152   -0.0133   -1.0507 H   0  0  0  0  0  0  0  0  0  0  0  0
    2.9927    0.7360   -0.0234 H   0  0  0  0  0  0  0  0  0  0  0  0
    6.2043    0.0261    1.5620 H   0  0  0  0  0  0  0  0  0  0  0  0
    4.5928    1.9904    1.6113 H   0  0  0  0  0  0  0  0  0  0  0  0
    4.8279    2.1449   -0.1752 H   0  0  0  0  0  0  0  0  0  0  0  0
    6.2619    3.4274    1.0274 H   0  0  0  0  0  0  0  0  0  0  0  0
    6.5411    0.7210   -1.2175 H   0  0  0  0  0  0  0  0  0  0  0  0
    8.3524    0.9047    0.1975 H   0  0  0  0  0  0  0  0  0  0  0  0
   11.4400   -0.5473    1.3490 H   0  0  0  0  0  0  0  0  0  0  0  0
    9.8868    0.2829    3.1070 H   0  0  0  0  0  0  0  0  0  0  0  0
    9.4786    1.7093    2.0801 H   0  0  0  0  0  0  0  0  0  0  0  0
   11.1353    2.1331    3.5781 H   0  0  0  0  0  0  0  0  0  0  0  0
   10.5462    1.9859   -0.1142 H   0  0  0  0  0  0  0  0  0  0  0  0
   12.9742    0.4668   -0.0720 H   0  0  0  0  0  0  0  0  0  0  0  0
   11.3797   -0.6342   -1.4760 H   0  0  0  0  0  0  0  0  0  0  0  0
   11.2311    0.5677   -3.3304 H   0  0  0  0  0  0  0  0  0  0  0  0
    8.7966    0.8695   -2.0987 H   0  0  0  0  0  0  0  0  0  0  0  0
    9.4382   -1.9069   -1.8493 H   0  0  0  0  0  0  0  0  0  0  0  0
    5.3443   -2.0870   -1.0064 H   0  0  0  0  0  0  0  0  0  0  0  0
    5.6557   -2.0283   -3.1471 H   0  0  0  0  0  0  0  0  0  0  0  0
    4.0491    0.5268   -2.0184 H   0  0  0  0  0  0  0  0  0  0  0  0
    3.2985   -1.0472   -3.2800 H   0  0  0  0  0  0  0  0  0  0  0  0
    0.2963   -2.7280    0.0723 H   0  0  0  0  0  0  0  0  0  0  0  0
    0.1836   -3.2422   -2.0554 H   0  0  0  0  0  0  0  0  0  0  0  0
   -1.7584   -1.6862   -1.7384 H   0  0  0  0  0  0  0  0  0  0  0  0
   -1.7329   -2.2846    1.0539 H   0  0  0  0  0  0  0  0  0  0  0  0
  1  2  1  0
  1  3  1  0
  3  4  1  0
  4  5  1  0
  5  6  1  0
  6  7  1  0
  7  8  1  0
  8  9  1  0
  7 10  1  0
 10 11  1  0
 11 12  1  0
 11 13  1  0
 13 14  1  0
 13 15  1  0
 15 16  1  0
  4 17  1  0
 17 18  1  0
 17 19  1  0
 19 20  1  0
 19 21  1  0
 21 22  1  0
 22 23  1  0
 23 24  1  0
 24 25  2  0
 25 26  1  0
 26 27  1  0
 25 28  1  0
 28 29  1  0
 29 30  1  0
 30 31  1  0
 31 32  1  0
 32 33  1  0
 33 34  1  0
 32 35  1  0
 35 36  1  0
 36 37  1  0
 37 38  1  0
 38 39  1  0
 39 40  1  0
 40 41  1  0
 39 42  1  0
 42 43  1  0
 42 44  1  0
 44 45  1  0
 44 46  1  0
 46 47  1  0
 35 48  1  0
 48 49  1  0
 48 50  1  0
 50 51  1  0
 28 52  1  0
 52 53  1  0
 52 54  1  0
 54 55  1  0
 21  1  1  0
 54 23  1  0
 15  6  1  0
 50 30  1  0
 46 37  1  0
  1 56  1  6
  2 57  1  0
  2 58  1  0
  2 59  1  0
  4 60  1  1
  6 61  1  1
  7 62  1  6
  8 63  1  0
  8 64  1  0
  9 65  1  0
 11 66  1  1
 12 67  1  0
 13 68  1  1
 14 69  1  0
 15 70  1  6
 16 71  1  0
 17 72  1  1
 18 73  1  0
 19 74  1  1
 20 75  1  0
 21 76  1  1
 22 77  1  0
 23 78  1  6
 24 79  1  0
 26 80  1  0
 26 81  1  0
 27 82  1  0
 28 83  1  6
 30 84  1  6
 32 85  1  1
 33 86  1  0
 33 87  1  0
 34 88  1  0
 35 89  1  6
 37 90  1  1
 39 91  1  1
 40 92  1  0
 40 93  1  0
 41 94  1  0
 42 95  1  6
 43 96  1  0
 44 97  1  1
 45 98  1  0
 46 99  1  6
 47100  1  0
 48101  1  1
 49102  1  0
 50103  1  6
 51104  1  0
 52105  1  1
 53106  1  0
 54107  1  6
 55108  1  0
M  END
$$$$
