
     RDKit          3D

 59 63  0  0  0  0  0  0  0  0999 V2000
   -1.8622    0.7209   -0.2559 C   0  0  2  0  0  0  0  0  0  0  0  0
   -2.9951    1.7761    0.0060 C   0  0  0  0  0  0  0  0  0  0  0  0
   -4.3049    1.1991   -0.4583 C   0  0  0  0  0  0  0  0  0  0  0  0
   -5.5021    1.7936   -0.8451 C   0  0  0  0  0  0  0  0  0  0  0  0
   -6.3927    0.8278   -1.2073 N   0  0  0  0  0  0  0  0  0  0  0  0
   -7.7489    1.0396   -1.7012 C   0  0  0  0  0  0  0  0  0  0  0  0
   -5.7597   -0.3559   -1.0503 C   0  0  0  0  0  0  0  0  0  0  0  0
   -6.2177   -1.6543   -1.2855 C   0  0  0  0  0  0  0  0  0  0  0  0
   -5.3290   -2.7204   -1.0129 C   0  0  0  0  0  0  0  0  0  0  0  0
   -4.0210   -2.4698   -0.5191 C   0  0  0  0  0  0  0  0  0  0  0  0
   -3.5837   -1.1392   -0.3250 C   0  0  0  0  0  0  0  0  0  0  0  0
   -4.5028   -0.1412   -0.5894 C   0  0  0  0  0  0  0  0  0  0  0  0
   -2.2827   -0.6838    0.3202 C   0  0  1  0  0  0  0  0  0  0  0  0
   -1.1035   -1.6537    0.1869 C   0  0  0  0  0  0  0  0  0  0  0  0
    0.1239   -1.1472    0.9974 C   0  0  1  0  0  0  0  0  0  0  0  0
    1.4328   -1.4928    0.2551 C   0  0  0  0  0  0  0  0  0  0  0  0
    2.6037   -1.3372    1.1202 N   0  0  0  0  0  0  0  0  0  0  0  0
    3.9324   -1.5107    0.6199 C   0  0  0  0  0  0  0  0  0  0  0  0
    4.1208   -1.8174   -0.5897 O   0  0  0  0  0  0  0  0  0  0  0  0
    5.0170   -1.3371    1.4865 O   0  0  0  0  0  0  0  0  0  0  0  0
    6.3770   -1.4290    1.0673 C   0  0  0  0  0  0  0  0  0  0  0  0
    6.7495   -0.2357    0.2302 C   0  0  0  0  0  0  0  0  0  0  0  0
    6.8119    1.0391    0.8160 C   0  0  0  0  0  0  0  0  0  0  0  0
    7.1376    2.1557    0.0398 C   0  0  0  0  0  0  0  0  0  0  0  0
    7.3993    2.0077   -1.3251 C   0  0  0  0  0  0  0  0  0  0  0  0
    7.3345    0.7429   -1.9162 C   0  0  0  0  0  0  0  0  0  0  0  0
    7.0092   -0.3765   -1.1435 C   0  0  0  0  0  0  0  0  0  0  0  0
    0.0359    0.3710    1.3210 C   0  0  0  0  0  0  0  0  0  0  0  0
   -0.4819    1.1194    0.1610 N   0  0  0  0  0  0  0  0  0  0  0  0
   -0.2510    2.5659    0.3001 C   0  0  0  0  0  0  0  0  0  0  0  0
   -1.8109    0.6038   -1.3628 H   0  0  0  0  0  0  0  0  0  0  0  0
   -3.0637    2.0032    1.0910 H   0  0  0  0  0  0  0  0  0  0  0  0
   -2.8095    2.7122   -0.5602 H   0  0  0  0  0  0  0  0  0  0  0  0
   -5.7024    2.8570   -0.8723 H   0  0  0  0  0  0  0  0  0  0  0  0
   -8.4670    0.4572   -1.0865 H   0  0  0  0  0  0  0  0  0  0  0  0
   -8.0207    2.1151   -1.6431 H   0  0  0  0  0  0  0  0  0  0  0  0
   -7.8164    0.7076   -2.7584 H   0  0  0  0  0  0  0  0  0  0  0  0
   -7.2173   -1.8425   -1.6546 H   0  0  0  0  0  0  0  0  0  0  0  0
   -5.6551   -3.7403   -1.1693 H   0  0  0  0  0  0  0  0  0  0  0  0
   -3.3782   -3.3075   -0.2906 H   0  0  0  0  0  0  0  0  0  0  0  0
   -2.5099   -0.5755    1.4047 H   0  0  0  0  0  0  0  0  0  0  0  0
   -1.3827   -2.6574    0.5710 H   0  0  0  0  0  0  0  0  0  0  0  0
   -0.8569   -1.7612   -0.8934 H   0  0  0  0  0  0  0  0  0  0  0  0
    0.1303   -1.6906    1.9694 H   0  0  0  0  0  0  0  0  0  0  0  0
    1.3941   -2.5478   -0.0947 H   0  0  0  0  0  0  0  0  0  0  0  0
    1.5381   -0.8348   -0.6356 H   0  0  0  0  0  0  0  0  0  0  0  0
    2.4880   -1.1006    2.1317 H   0  0  0  0  0  0  0  0  0  0  0  0
    6.5414   -2.3825    0.5188 H   0  0  0  0  0  0  0  0  0  0  0  0
    7.0253   -1.4524    1.9686 H   0  0  0  0  0  0  0  0  0  0  0  0
    6.6063    1.1665    1.8718 H   0  0  0  0  0  0  0  0  0  0  0  0
    7.1853    3.1361    0.4961 H   0  0  0  0  0  0  0  0  0  0  0  0
    7.6504    2.8730   -1.9248 H   0  0  0  0  0  0  0  0  0  0  0  0
    7.5344    0.6300   -2.9739 H   0  0  0  0  0  0  0  0  0  0  0  0
    6.9576   -1.3492   -1.6165 H   0  0  0  0  0  0  0  0  0  0  0  0
    1.0400    0.7498    1.6122 H   0  0  0  0  0  0  0  0  0  0  0  0
   -0.6253    0.5354    2.2012 H   0  0  0  0  0  0  0  0  0  0  0  0
   -0.5444    3.0927   -0.6320 H   0  0  0  0  0  0  0  0  0  0  0  0
    0.8318    2.7673    0.4469 H   0  0  0  0  0  0  0  0  0  0  0  0
   -0.8092    2.9783    1.1683 H   0  0  0  0  0  0  0  0  0  0  0  0
  1  2  1  0
  2  3  1  0
  3  4  2  0
  4  5  1  0
  5  6  1  0
  5  7  1  0
  7  8  2  0
  8  9  1  0
  9 10  2  0
 10 11  1  0
 11 12  2  0
 11 13  1  0
 13 14  1  0
 14 15  1  0
 15 16  1  0
 16 17  1  0
 17 18  1  0
 18 19  2  0
 18 20  1  0
 20 21  1  0
 21 22  1  0
 22 23  2  0
 23 24  1  0
 24 25  2  0
 25 26  1  0
 26 27  2  0
 15 28  1  0
 28 29  1  0
 29 30  1  0
 13  1  1  0
 27 22  1  0
 29  1  1  0
 12  3  1  0
 12  7  1  0
  1 31  1  6
  2 32  1  0
  2 33  1  0
  4 34  1  0
  6 35  1  0
  6 36  1  0
  6 37  1  0
  8 38  1  0
  9 39  1  0
 10 40  1  0
 13 41  1  1
 14 42  1  0
 14 43  1  0
 15 44  1  1
 16 45  1  0
 16 46  1  0
 17 47  1  0
 21 48  1  0
 21 49  1  0
 23 50  1  0
 24 51  1  0
 25 52  1  0
 26 53  1  0
 27 54  1  0
 28 55  1  0
 28 56  1  0
 30 57  1  0
 30 58  1  0
 30 59  1  0
M  END
$$$$
