
     RDKit          3D

 25 25  0  0  0  0  0  0  0  0999 V2000
   -4.3986    0.8919   -0.4833 N   0  0  0  0  0  0  0  0  0  0  0  0
   -2.9415    0.7896   -0.5201 C   0  0  0  0  0  0  0  0  0  0  0  0
   -2.4285   -0.2420    0.4935 C   0  0  0  0  0  0  0  0  0  0  0  0
   -0.9270   -0.3337    0.4415 C   0  0  0  0  0  0  0  0  0  0  0  0
   -0.1376    0.5120    1.2371 C   0  0  0  0  0  0  0  0  0  0  0  0
    1.2571    0.4493    1.1644 C   0  0  0  0  0  0  0  0  0  0  0  0
    1.8784   -0.4553    0.2931 C   0  0  0  0  0  0  0  0  0  0  0  0
    1.0930   -1.2855   -0.5178 C   0  0  0  0  0  0  0  0  0  0  0  0
   -0.3019   -1.2239   -0.4462 C   0  0  0  0  0  0  0  0  0  0  0  0
    3.6346   -0.5193    0.1915 S   0  0  0  0  0  6  0  0  0  0  0  0
    4.1852    0.6361   -0.9702 N   0  0  0  0  0  0  0  0  0  0  0  0
    4.0711   -1.8959   -0.2253 O   0  0  0  0  0  0  0  0  0  0  0  0
    4.2326   -0.2102    1.5357 O   0  0  0  0  0  0  0  0  0  0  0  0
   -4.8086   -0.0480   -0.6905 H   0  0  0  0  0  0  0  0  0  0  0  0
   -4.6940    1.1622    0.4831 H   0  0  0  0  0  0  0  0  0  0  0  0
   -2.5037    1.7869   -0.2954 H   0  0  0  0  0  0  0  0  0  0  0  0
   -2.6257    0.4977   -1.5457 H   0  0  0  0  0  0  0  0  0  0  0  0
   -2.8741   -1.2369    0.2733 H   0  0  0  0  0  0  0  0  0  0  0  0
   -2.7527    0.0462    1.5176 H   0  0  0  0  0  0  0  0  0  0  0  0
   -0.6023    1.2216    1.9104 H   0  0  0  0  0  0  0  0  0  0  0  0
    1.8512    1.1098    1.7830 H   0  0  0  0  0  0  0  0  0  0  0  0
    1.5585   -1.9760   -1.2094 H   0  0  0  0  0  0  0  0  0  0  0  0
   -0.8947   -1.8672   -1.0847 H   0  0  0  0  0  0  0  0  0  0  0  0
    5.2294    0.6121   -0.9539 H   0  0  0  0  0  0  0  0  0  0  0  0
    3.8997    1.5786   -0.6218 H   0  0  0  0  0  0  0  0  0  0  0  0
  1  2  1  0
  2  3  1  0
  3  4  1  0
  4  5  2  0
  5  6  1  0
  6  7  2  0
  7  8  1  0
  8  9  2  0
  7 10  1  0
 10 11  1  0
 10 12  2  0
 10 13  2  0
  9  4  1  0
  1 14  1  0
  1 15  1  0
  2 16  1  0
  2 17  1  0
  3 18  1  0
  3 19  1  0
  5 20  1  0
  6 21  1  0
  8 22  1  0
  9 23  1  0
 11 24  1  0
 11 25  1  0
M  END
$$$$
