
     RDKit          3D

 37 39  0  0  0  0  0  0  0  0999 V2000
    4.0865    2.6085    3.6362 N   0  0  0  0  0  0  0  0  0  0  0  0
    3.5473    2.4088    2.3295 C   0  0  0  0  0  0  0  0  0  0  0  0
    4.1903    2.9016    1.2286 N   0  0  0  0  0  0  0  0  0  0  0  0
    3.6918    2.7114   -0.0357 C   0  0  0  0  0  0  0  0  0  0  0  0
    2.5286    2.0183   -0.2260 N   0  0  0  0  0  0  0  0  0  0  0  0
    1.8907    1.5376    0.8687 C   0  0  0  0  0  0  0  0  0  0  0  0
    2.3642    1.7082    2.1240 C   0  0  0  0  0  0  0  0  0  0  0  0
    1.5616    1.1007    3.0186 N   0  0  0  0  0  0  0  0  0  0  0  0
    0.5879    0.5638    2.2320 C   0  0  0  0  0  0  0  0  0  0  0  0
    0.7577    0.8270    0.9094 N   0  0  0  0  0  0  0  0  0  0  0  0
   -0.0305    0.3268   -0.2179 C   0  0  2  0  0  0  0  0  0  0  0  0
   -1.3957    0.2518    0.1394 O   0  0  0  0  0  0  0  0  0  0  0  0
   -1.8399   -1.0649   -0.1111 C   0  0  1  0  0  0  0  0  0  0  0  0
   -3.2424   -1.0262   -0.7247 C   0  0  0  0  0  0  0  0  0  0  0  0
   -3.7300   -2.3225   -0.9000 O   0  0  0  0  0  0  0  0  0  0  0  0
   -6.8169    2.1289   -2.3259 W   0  0  0  0  0  5  0  0  0  0  0  0
   -3.2373   -3.7048   -2.9483 O   0  0  0  0  0  0  0  0  0  0  0  0
   -1.7968    1.5739   -3.2283 O   0  0  0  0  0  0  0  0  0  0  0  0
   -3.7523   -4.4502   -0.6824 O   0  0  0  0  0  0  0  0  0  0  0  0
   -0.8275   -1.7609   -1.0163 C   0  0  2  0  0  0  0  0  0  0  0  0
   -0.7624   -3.1337   -0.7321 O   0  0  0  0  0  0  0  0  0  0  0  0
    0.4533   -1.0601   -0.6418 C   0  0  1  0  0  0  0  0  0  0  0  0
    1.3764   -1.0132   -1.7035 O   0  0  0  0  0  0  0  0  0  0  0  0
    4.9785    3.1366    3.7603 H   0  0  0  0  0  0  0  0  0  0  0  0
    3.6012    2.2335    4.4814 H   0  0  0  0  0  0  0  0  0  0  0  0
    4.2239    3.1107   -0.8880 H   0  0  0  0  0  0  0  0  0  0  0  0
   -0.2286   -0.0282    2.6248 H   0  0  0  0  0  0  0  0  0  0  0  0
    0.0532    1.0422   -1.0656 H   0  0  0  0  0  0  0  0  0  0  0  0
   -1.8960   -1.5970    0.8661 H   0  0  0  0  0  0  0  0  0  0  0  0
   -3.9280   -0.4750   -0.0469 H   0  0  0  0  0  0  0  0  0  0  0  0
   -3.2248   -0.5043   -1.7049 H   0  0  0  0  0  0  0  0  0  0  0  0
   -2.4021   -3.4819   -3.4314 H   0  0  0  0  0  0  0  0  0  0  0  0
   -1.3629    0.6940   -3.3624 H   0  0  0  0  0  0  0  0  0  0  0  0
   -1.0793   -1.5894   -2.0898 H   0  0  0  0  0  0  0  0  0  0  0  0
   -0.2128   -3.5424   -1.4506 H   0  0  0  0  0  0  0  0  0  0  0  0
    0.9241   -1.5820    0.2224 H   0  0  0  0  0  0  0  0  0  0  0  0
    0.9485   -0.5475   -2.4689 H   0  0  0  0  0  0  0  0  0  0  0  0
  1  2  1  0
  2  3  2  0
  3  4  1  0
  4  5  2  0
  5  6  1  0
  6  7  2  0
  7  8  1  0
  8  9  2  0
  9 10  1  0
 10 11  1  0
 11 12  1  0
 12 13  1  0
 13 14  1  0
 14 15  1  0
 15 16  1  0
 16 17  1  0
 16 18  1  0
 16 19  2  0
 13 20  1  0
 20 21  1  0
 20 22  1  0
 22 23  1  0
  7  2  1  0
 22 11  1  0
 10  6  1  0
  1 24  1  0
  1 25  1  0
  4 26  1  0
  9 27  1  0
 11 28  1  6
 13 29  1  1
 14 30  1  0
 14 31  1  0
 17 32  1  0
 18 33  1  0
 20 34  1  6
 21 35  1  0
 22 36  1  1
 23 37  1  0
M  END
$$$$
