
     RDKit          3D

 33 34  0  0  0  0  0  0  0  0999 V2000
   -2.2605    1.3600    1.9474 C   0  0  0  0  0  0  0  0  0  0  0  0
   -0.8240    1.1566    1.4480 C   0  0  0  0  0  0  0  0  0  0  0  0
   -0.6224    0.0866    0.3191 C   0  0  0  0  0  0  0  0  0  0  0  0
   -1.2697    0.5618   -1.0259 C   0  0  0  0  0  0  0  0  0  0  0  0
   -2.7664    0.2628   -1.1839 C   0  0  0  0  0  0  0  0  0  0  0  0
   -3.0622   -1.1667   -0.8724 C   0  0  0  0  0  0  0  0  0  0  0  0
   -4.0049   -1.7560   -1.4649 O   0  0  0  0  0  0  0  0  0  0  0  0
   -2.3303   -1.8453    0.1467 N   0  0  0  0  0  0  0  0  0  0  0  0
   -1.2140   -1.2354    0.8022 C   0  0  0  0  0  0  0  0  0  0  0  0
   -0.7069   -1.8108    1.8038 O   0  0  0  0  0  0  0  0  0  0  0  0
    0.8818   -0.1493    0.0333 C   0  0  0  0  0  0  0  0  0  0  0  0
    1.8902    0.7776    0.3931 C   0  0  0  0  0  0  0  0  0  0  0  0
    3.2311    0.5407    0.0762 C   0  0  0  0  0  0  0  0  0  0  0  0
    3.6020   -0.6110   -0.6242 C   0  0  0  0  0  0  0  0  0  0  0  0
    4.9749   -0.8478   -0.9473 N   0  0  0  0  0  0  0  0  0  0  0  0
    2.6186   -1.5237   -1.0152 C   0  0  0  0  0  0  0  0  0  0  0  0
    1.2775   -1.2928   -0.7007 C   0  0  0  0  0  0  0  0  0  0  0  0
   -2.8075    0.4024    2.0625 H   0  0  0  0  0  0  0  0  0  0  0  0
   -2.8150    2.0369    1.2675 H   0  0  0  0  0  0  0  0  0  0  0  0
   -2.2328    1.8566    2.9404 H   0  0  0  0  0  0  0  0  0  0  0  0
   -0.4677    2.1506    1.1020 H   0  0  0  0  0  0  0  0  0  0  0  0
   -0.2051    0.8679    2.3270 H   0  0  0  0  0  0  0  0  0  0  0  0
   -1.1047    1.6526   -1.1637 H   0  0  0  0  0  0  0  0  0  0  0  0
   -0.7644    0.0693   -1.8869 H   0  0  0  0  0  0  0  0  0  0  0  0
   -3.0641    0.4813   -2.2327 H   0  0  0  0  0  0  0  0  0  0  0  0
   -3.3817    0.9095   -0.5334 H   0  0  0  0  0  0  0  0  0  0  0  0
   -2.6294   -2.8039    0.4356 H   0  0  0  0  0  0  0  0  0  0  0  0
    1.6677    1.6916    0.9205 H   0  0  0  0  0  0  0  0  0  0  0  0
    3.9826    1.2617    0.3732 H   0  0  0  0  0  0  0  0  0  0  0  0
    5.7160   -0.1693   -0.6622 H   0  0  0  0  0  0  0  0  0  0  0  0
    5.2605   -1.7037   -1.4733 H   0  0  0  0  0  0  0  0  0  0  0  0
    2.8895   -2.4127   -1.5711 H   0  0  0  0  0  0  0  0  0  0  0  0
    0.5415   -2.0106   -1.0406 H   0  0  0  0  0  0  0  0  0  0  0  0
  1  2  1  0
  2  3  1  0
  3  4  1  0
  4  5  1  0
  5  6  1  0
  6  7  2  0
  6  8  1  0
  8  9  1  0
  9 10  2  0
  3 11  1  0
 11 12  2  0
 12 13  1  0
 13 14  2  0
 14 15  1  0
 14 16  1  0
 16 17  2  0
  9  3  1  0
 17 11  1  0
  1 18  1  0
  1 19  1  0
  1 20  1  0
  2 21  1  0
  2 22  1  0
  4 23  1  0
  4 24  1  0
  5 25  1  0
  5 26  1  0
  8 27  1  0
 12 28  1  0
 13 29  1  0
 15 30  1  0
 15 31  1  0
 16 32  1  0
 17 33  1  0
M  END
$$$$
