
     RDKit          3D

 62 65  0  0  0  0  0  0  0  0999 V2000
   -0.4657   -1.8318   -2.4813 C   0  0  0  0  0  0  0  0  0  0  0  0
   -1.0567   -2.0111   -1.1956 O   0  0  0  0  0  0  0  0  0  0  0  0
   -1.6255   -0.9623   -0.4600 C   0  0  0  0  0  0  0  0  0  0  0  0
   -2.9968   -1.0338   -0.0729 C   0  0  0  0  0  0  0  0  0  0  0  0
   -3.5624    0.1064    0.5502 C   0  0  0  0  0  0  0  0  0  0  0  0
   -2.8026    1.2480    0.8281 C   0  0  0  0  0  0  0  0  0  0  0  0
   -1.4437    1.2610    0.5178 C   0  0  0  0  0  0  0  0  0  0  0  0
   -0.8413    0.1639   -0.1053 C   0  0  0  0  0  0  0  0  0  0  0  0
    0.6272    0.1837   -0.2952 C   0  0  0  0  0  0  0  0  0  0  0  0
    1.4190   -0.8661    0.1999 C   0  0  0  0  0  0  0  0  0  0  0  0
    2.8106   -0.8501    0.0228 C   0  0  0  0  0  0  0  0  0  0  0  0
    3.6029   -1.9007    0.5032 C   0  0  0  0  0  0  0  0  0  0  0  0
    4.9875   -1.8767    0.3219 C   0  0  0  0  0  0  0  0  0  0  0  0
    5.6086   -0.8037   -0.3364 C   0  0  0  0  0  0  0  0  0  0  0  0
    7.0387   -0.8221   -0.5016 N   0  0  0  0  0  0  0  0  0  0  0  0
    7.9860    0.5320   -1.0341 S   0  0  0  0  0  6  0  0  0  0  0  0
    7.8171    1.8887    0.1067 C   0  0  0  0  0  0  0  0  0  0  0  0
    7.5607    0.9486   -2.4140 O   0  0  0  0  0  0  0  0  0  0  0  0
    9.4317    0.1244   -1.0780 O   0  0  0  0  0  0  0  0  0  0  0  0
    4.8132    0.2495   -0.8270 C   0  0  0  0  0  0  0  0  0  0  0  0
    3.4209    0.2340   -0.6487 C   0  0  0  0  0  0  0  0  0  0  0  0
    2.6275    1.2853   -1.1311 C   0  0  0  0  0  0  0  0  0  0  0  0
    1.2423    1.2615   -0.9523 C   0  0  0  0  0  0  0  0  0  0  0  0
   -3.4089    2.3855    1.4752 N   0  0  0  0  0  0  0  0  0  0  0  0
   -4.0324    2.2127    2.6787 C   0  0  0  0  0  0  0  0  0  0  0  0
   -4.6184    3.2931    3.3329 C   0  0  0  0  0  0  0  0  0  0  0  0
   -4.5558    4.5482    2.7348 C   0  0  0  0  0  0  0  0  0  0  0  0
   -5.0759    5.5442    3.3049 O   0  0  0  0  0  0  0  0  0  0  0  0
   -3.9338    4.6961    1.5353 N   0  0  0  0  0  0  0  0  0  0  0  0
   -3.3663    3.6318    0.9025 C   0  0  0  0  0  0  0  0  0  0  0  0
   -2.8149    3.8036   -0.2198 O   0  0  0  0  0  0  0  0  0  0  0  0
   -3.8518   -2.3041   -0.3462 C   0  0  0  0  0  0  0  0  0  0  0  0
   -5.2825   -2.2103    0.2470 C   0  0  0  0  0  0  0  0  0  0  0  0
   -3.1877   -3.5436    0.2998 C   0  0  0  0  0  0  0  0  0  0  0  0
   -4.0081   -2.5247   -1.8670 C   0  0  0  0  0  0  0  0  0  0  0  0
    0.5301   -1.3548   -2.4060 H   0  0  0  0  0  0  0  0  0  0  0  0
   -1.1286   -1.2144   -3.1240 H   0  0  0  0  0  0  0  0  0  0  0  0
   -0.3344   -2.8249   -2.9571 H   0  0  0  0  0  0  0  0  0  0  0  0
   -4.6040    0.1439    0.8273 H   0  0  0  0  0  0  0  0  0  0  0  0
   -0.8461    2.1207    0.7982 H   0  0  0  0  0  0  0  0  0  0  0  0
    0.9493   -1.6920    0.7223 H   0  0  0  0  0  0  0  0  0  0  0  0
    3.1524   -2.7410    1.0182 H   0  0  0  0  0  0  0  0  0  0  0  0
    5.5814   -2.6987    0.7017 H   0  0  0  0  0  0  0  0  0  0  0  0
    7.5671   -1.6765   -0.2148 H   0  0  0  0  0  0  0  0  0  0  0  0
    8.4748    2.7237   -0.2111 H   0  0  0  0  0  0  0  0  0  0  0  0
    6.7665    2.2414    0.1299 H   0  0  0  0  0  0  0  0  0  0  0  0
    8.1125    1.5551    1.1227 H   0  0  0  0  0  0  0  0  0  0  0  0
    5.2623    1.0787   -1.3536 H   0  0  0  0  0  0  0  0  0  0  0  0
    3.0778    2.1248   -1.6474 H   0  0  0  0  0  0  0  0  0  0  0  0
    0.6460    2.0789   -1.3389 H   0  0  0  0  0  0  0  0  0  0  0  0
   -4.0693    1.2352    3.1460 H   0  0  0  0  0  0  0  0  0  0  0  0
   -5.1088    3.1547    4.2886 H   0  0  0  0  0  0  0  0  0  0  0  0
   -3.8947    5.6415    1.0896 H   0  0  0  0  0  0  0  0  0  0  0  0
   -5.8637   -1.3960   -0.2373 H   0  0  0  0  0  0  0  0  0  0  0  0
   -5.2461   -2.0404    1.3451 H   0  0  0  0  0  0  0  0  0  0  0  0
   -5.8475   -3.1528    0.0764 H   0  0  0  0  0  0  0  0  0  0  0  0
   -2.9934   -3.3577    1.3783 H   0  0  0  0  0  0  0  0  0  0  0  0
   -3.8464   -4.4351    0.2144 H   0  0  0  0  0  0  0  0  0  0  0  0
   -2.2312   -3.8169   -0.1852 H   0  0  0  0  0  0  0  0  0  0  0  0
   -4.7295   -3.3447   -2.0749 H   0  0  0  0  0  0  0  0  0  0  0  0
   -3.0560   -2.8149   -2.3489 H   0  0  0  0  0  0  0  0  0  0  0  0
   -4.3833   -1.5992   -2.3549 H   0  0  0  0  0  0  0  0  0  0  0  0
  1  2  1  0
  2  3  1  0
  3  4  2  0
  4  5  1  0
  5  6  2  0
  6  7  1  0
  7  8  2  0
  8  9  1  0
  9 10  2  0
 10 11  1  0
 11 12  2  0
 12 13  1  0
 13 14  2  0
 14 15  1  0
 15 16  1  0
 16 17  1  0
 16 18  2  0
 16 19  2  0
 14 20  1  0
 20 21  2  0
 21 22  1  0
 22 23  2  0
  6 24  1  0
 24 25  1  0
 25 26  2  0
 26 27  1  0
 27 28  2  0
 27 29  1  0
 29 30  1  0
 30 31  2  0
  4 32  1  0
 32 33  1  0
 32 34  1  0
 32 35  1  0
  8  3  1  0
 23  9  1  0
 30 24  1  0
 21 11  1  0
  1 36  1  0
  1 37  1  0
  1 38  1  0
  5 39  1  0
  7 40  1  0
 10 41  1  0
 12 42  1  0
 13 43  1  0
 15 44  1  0
 17 45  1  0
 17 46  1  0
 17 47  1  0
 20 48  1  0
 22 49  1  0
 23 50  1  0
 25 51  1  0
 26 52  1  0
 29 53  1  0
 33 54  1  0
 33 55  1  0
 33 56  1  0
 34 57  1  0
 34 58  1  0
 34 59  1  0
 35 60  1  0
 35 61  1  0
 35 62  1  0
M  END
$$$$
