
     RDKit          3D

 89 88  0  0  0  0  0  0  0  0999 V2000
   -6.2390   -0.0695    1.2007 N   0  0  0  0  0  0  0  0  0  0  0  0
   -5.6916   -1.2989    0.6155 C   0  0  2  0  0  0  0  0  0  0  0  0
   -4.1958   -1.4210    0.9422 C   0  0  0  0  0  0  0  0  0  0  0  0
   -3.4802   -0.3423    0.3723 O   0  0  0  0  0  0  0  0  0  0  0  0
   -2.1401   -0.3358    0.8261 C   0  0  0  0  0  0  0  0  0  0  0  0
   -1.9850    0.6574    1.9852 C   0  0  0  0  0  0  0  0  0  0  0  0
   -0.5252    0.7716    2.4740 C   0  0  0  0  0  0  0  0  0  0  0  0
    0.1810    2.0632    2.0183 C   0  0  0  0  0  0  0  0  0  0  0  0
    0.4106    2.1741    0.5006 C   0  0  0  0  0  0  0  0  0  0  0  0
    1.3576    1.1119   -0.0907 C   0  0  0  0  0  0  0  0  0  0  0  0
    2.8169    1.2403    0.3975 C   0  0  0  0  0  0  0  0  0  0  0  0
    3.1814    0.1671    1.4381 C   0  0  0  0  0  0  0  0  0  0  0  0
    4.6287    0.3138    1.9565 C   0  0  0  0  0  0  0  0  0  0  0  0
    5.6060   -0.7203    1.3664 C   0  0  0  0  0  0  0  0  0  0  0  0
    5.8872   -0.5592   -0.1392 C   0  0  0  0  0  0  0  0  0  0  0  0
    6.5450    0.7774   -0.5392 C   0  0  0  0  0  0  0  0  0  0  0  0
    7.8815    1.0874    0.1644 C   0  0  0  0  0  0  0  0  0  0  0  0
    8.9706    0.0129   -0.0039 C   0  0  0  0  0  0  0  0  0  0  0  0
    9.3841   -0.1930   -1.4685 C   0  0  0  0  0  0  0  0  0  0  0  0
   10.5763   -1.1514   -1.5729 C   0  0  0  0  0  0  0  0  0  0  0  0
   10.9800   -1.3701   -3.0355 C   0  0  0  0  0  0  0  0  0  0  0  0
   12.1670   -2.3229   -3.1432 C   0  0  0  0  0  0  0  0  0  0  0  0
   -5.9438   -1.3157   -0.8986 C   0  0  0  0  0  0  0  0  0  0  0  0
   -7.3316   -1.2689   -1.1288 O   0  0  0  0  0  0  0  0  0  0  0  0
   -7.6127   -1.2288   -2.8107 P   0  0  0  0  0  5  0  0  0  0  0  0
   -6.7701    0.0512   -3.5364 O   0  0  0  0  0  0  0  0  0  0  0  0
   -7.1617   -2.5320   -3.4309 O   0  0  0  0  0  0  0  0  0  0  0  0
   -9.2871   -1.0501   -3.0768 O   0  0  0  0  0  0  0  0  0  0  0  0
   -9.6839    0.2147   -2.5975 C   0  0  0  0  0  0  0  0  0  0  0  0
  -11.2052    0.2626   -2.4882 C   0  0  0  0  0  0  0  0  0  0  0  0
  -11.8215   -0.9753   -1.2884 S   0  0  0  0  0  0  0  0  0  0  0  0
  -11.6124    0.0650    0.1943 C   0  0  0  0  0  0  0  0  0  0  0  0
   -7.5727    0.0097    1.7248 C   0  0  0  0  0  0  0  0  0  0  0  0
   -8.1423    1.3345    2.1140 C   0  0  0  0  0  0  0  0  0  0  0  0
   -8.2842   -1.0262    1.8270 O   0  0  0  0  0  0  0  0  0  0  0  0
   -5.7091    0.8232    1.0761 H   0  0  0  0  0  0  0  0  0  0  0  0
   -6.1946   -2.1855    1.0623 H   0  0  0  0  0  0  0  0  0  0  0  0
   -3.8170   -2.3862    0.5356 H   0  0  0  0  0  0  0  0  0  0  0  0
   -4.0865   -1.4362    2.0511 H   0  0  0  0  0  0  0  0  0  0  0  0
   -1.7671   -1.3443    1.1275 H   0  0  0  0  0  0  0  0  0  0  0  0
   -1.5042   -0.0122   -0.0215 H   0  0  0  0  0  0  0  0  0  0  0  0
   -2.3831    1.6502    1.6814 H   0  0  0  0  0  0  0  0  0  0  0  0
   -2.6142    0.3047    2.8307 H   0  0  0  0  0  0  0  0  0  0  0  0
    0.0679   -0.1238    2.1940 H   0  0  0  0  0  0  0  0  0  0  0  0
   -0.5379    0.7867    3.5859 H   0  0  0  0  0  0  0  0  0  0  0  0
   -0.4275    2.9347    2.3447 H   0  0  0  0  0  0  0  0  0  0  0  0
    1.1526    2.1542    2.5469 H   0  0  0  0  0  0  0  0  0  0  0  0
    0.8266    3.1819    0.2823 H   0  0  0  0  0  0  0  0  0  0  0  0
   -0.5655    2.1265   -0.0255 H   0  0  0  0  0  0  0  0  0  0  0  0
    0.9606    0.0895    0.0797 H   0  0  0  0  0  0  0  0  0  0  0  0
    1.3523    1.2545   -1.1936 H   0  0  0  0  0  0  0  0  0  0  0  0
    3.0032    2.2532    0.8168 H   0  0  0  0  0  0  0  0  0  0  0  0
    3.4856    1.1283   -0.4801 H   0  0  0  0  0  0  0  0  0  0  0  0
    3.0186   -0.8450    1.0071 H   0  0  0  0  0  0  0  0  0  0  0  0
    2.4933    0.2598    2.3034 H   0  0  0  0  0  0  0  0  0  0  0  0
    4.6139    0.1502    3.0565 H   0  0  0  0  0  0  0  0  0  0  0  0
    5.0139    1.3455    1.8138 H   0  0  0  0  0  0  0  0  0  0  0  0
    6.5618   -0.6742    1.9293 H   0  0  0  0  0  0  0  0  0  0  0  0
    5.1979   -1.7397    1.5407 H   0  0  0  0  0  0  0  0  0  0  0  0
    6.5362   -1.3975   -0.4693 H   0  0  0  0  0  0  0  0  0  0  0  0
    4.9394   -0.6773   -0.7042 H   0  0  0  0  0  0  0  0  0  0  0  0
    5.8431    1.6121   -0.3361 H   0  0  0  0  0  0  0  0  0  0  0  0
    6.7012    0.7785   -1.6386 H   0  0  0  0  0  0  0  0  0  0  0  0
    7.6987    1.2472    1.2481 H   0  0  0  0  0  0  0  0  0  0  0  0
    8.2684    2.0519   -0.2308 H   0  0  0  0  0  0  0  0  0  0  0  0
    9.8599    0.3423    0.5769 H   0  0  0  0  0  0  0  0  0  0  0  0
    8.6348   -0.9497    0.4363 H   0  0  0  0  0  0  0  0  0  0  0  0
    8.5318   -0.6194   -2.0397 H   0  0  0  0  0  0  0  0  0  0  0  0
    9.6596    0.7870   -1.9167 H   0  0  0  0  0  0  0  0  0  0  0  0
   11.4396   -0.7283   -1.0131 H   0  0  0  0  0  0  0  0  0  0  0  0
   10.3033   -2.1286   -1.1164 H   0  0  0  0  0  0  0  0  0  0  0  0
   11.2567   -0.3974   -3.4976 H   0  0  0  0  0  0  0  0  0  0  0  0
   10.1235   -1.7979   -3.6011 H   0  0  0  0  0  0  0  0  0  0  0  0
   13.0461   -1.9064   -2.6069 H   0  0  0  0  0  0  0  0  0  0  0  0
   11.9079   -3.3127   -2.7103 H   0  0  0  0  0  0  0  0  0  0  0  0
   12.4361   -2.4621   -4.2115 H   0  0  0  0  0  0  0  0  0  0  0  0
   -5.5138   -2.2521   -1.3216 H   0  0  0  0  0  0  0  0  0  0  0  0
   -5.4365   -0.4350   -1.3531 H   0  0  0  0  0  0  0  0  0  0  0  0
   -6.8882    0.8196   -2.9229 H   0  0  0  0  0  0  0  0  0  0  0  0
   -9.3632    1.0018   -3.3150 H   0  0  0  0  0  0  0  0  0  0  0  0
   -9.2552    0.4468   -1.5965 H   0  0  0  0  0  0  0  0  0  0  0  0
  -11.6469    0.0351   -3.4816 H   0  0  0  0  0  0  0  0  0  0  0  0
  -11.5329    1.2846   -2.2015 H   0  0  0  0  0  0  0  0  0  0  0  0
  -10.5455    0.3272    0.3398 H   0  0  0  0  0  0  0  0  0  0  0  0
  -11.9601   -0.5014    1.0823 H   0  0  0  0  0  0  0  0  0  0  0  0
  -12.2186    0.9899    0.1030 H   0  0  0  0  0  0  0  0  0  0  0  0
   -9.0814    1.2006    2.6920 H   0  0  0  0  0  0  0  0  0  0  0  0
   -7.4120    1.8879    2.7406 H   0  0  0  0  0  0  0  0  0  0  0  0
   -8.3612    1.9239    1.1993 H   0  0  0  0  0  0  0  0  0  0  0  0
  1  2  1  0
  2  3  1  0
  3  4  1  0
  4  5  1  0
  5  6  1  0
  6  7  1  0
  7  8  1  0
  8  9  1  0
  9 10  1  0
 10 11  1  0
 11 12  1  0
 12 13  1  0
 13 14  1  0
 14 15  1  0
 15 16  1  0
 16 17  1  0
 17 18  1  0
 18 19  1  0
 19 20  1  0
 20 21  1  0
 21 22  1  0
  2 23  1  0
 23 24  1  0
 24 25  1  0
 25 26  1  0
 25 27  2  0
 25 28  1  0
 28 29  1  0
 29 30  1  0
 30 31  1  0
 31 32  1  0
  1 33  1  0
 33 34  1  0
 33 35  2  0
  1 36  1  0
  2 37  1  1
  3 38  1  0
  3 39  1  0
  5 40  1  0
  5 41  1  0
  6 42  1  0
  6 43  1  0
  7 44  1  0
  7 45  1  0
  8 46  1  0
  8 47  1  0
  9 48  1  0
  9 49  1  0
 10 50  1  0
 10 51  1  0
 11 52  1  0
 11 53  1  0
 12 54  1  0
 12 55  1  0
 13 56  1  0
 13 57  1  0
 14 58  1  0
 14 59  1  0
 15 60  1  0
 15 61  1  0
 16 62  1  0
 16 63  1  0
 17 64  1  0
 17 65  1  0
 18 66  1  0
 18 67  1  0
 19 68  1  0
 19 69  1  0
 20 70  1  0
 20 71  1  0
 21 72  1  0
 21 73  1  0
 22 74  1  0
 22 75  1  0
 22 76  1  0
 23 77  1  0
 23 78  1  0
 26 79  1  0
 29 80  1  0
 29 81  1  0
 30 82  1  0
 30 83  1  0
 32 84  1  0
 32 85  1  0
 32 86  1  0
 34 87  1  0
 34 88  1  0
 34 89  1  0
M  END
$$$$
