
     RDKit          3D

 34 35  0  0  0  0  0  0  0  0999 V2000
   -1.7733   -1.6498   -2.6609 O   0  0  0  0  0  0  0  0  0  0  0  0
   -0.6029   -1.6191   -1.8893 C   0  0  0  0  0  0  0  0  0  0  0  0
   -0.9219   -1.2866   -0.4227 C   0  0  1  0  0  0  0  0  0  0  0  0
    0.2596   -1.4196    0.3432 O   0  0  0  0  0  0  0  0  0  0  0  0
    0.5344   -0.1685    0.9364 C   0  0  2  0  0  0  0  0  0  0  0  0
   -0.2538    0.8975    0.1943 C   0  0  2  0  0  0  0  0  0  0  0  0
   -0.5753    1.9701    1.0415 O   0  0  0  0  0  0  0  0  0  0  0  0
   -1.4750    0.1380   -0.2616 C   0  0  2  0  0  0  0  0  0  0  0  0
   -2.4533    0.1585    0.7639 O   0  0  0  0  0  0  0  0  0  0  0  0
   -4.0143    0.1925    0.0742 P   0  0  0  0  0  5  0  0  0  0  0  0
   -4.2156    1.6128   -0.8246 O   0  0  0  0  0  0  0  0  0  0  0  0
   -4.2425   -1.1468   -0.9350 O   0  0  0  0  0  0  0  0  0  0  0  0
   -5.0427    0.1600    1.1818 O   0  0  0  0  0  0  0  0  0  0  0  0
    1.9824    0.1250    0.9011 N   0  0  0  0  0  0  0  0  0  0  0  0
    2.7220   -0.2320   -0.1945 C   0  0  0  0  0  0  0  0  0  0  0  0
    4.0809    0.0618   -0.2617 C   0  0  0  0  0  0  0  0  0  0  0  0
    4.6694    0.7393    0.8003 C   0  0  0  0  0  0  0  0  0  0  0  0
    5.8978    1.0177    0.7671 O   0  0  0  0  0  0  0  0  0  0  0  0
    3.9156    1.1041    1.8698 N   0  0  0  0  0  0  0  0  0  0  0  0
    2.5859    0.8132    1.9261 C   0  0  0  0  0  0  0  0  0  0  0  0
    1.9184    1.1876    2.9295 O   0  0  0  0  0  0  0  0  0  0  0  0
   -2.2246   -2.5105   -2.4579 H   0  0  0  0  0  0  0  0  0  0  0  0
    0.0820   -0.8523   -2.3099 H   0  0  0  0  0  0  0  0  0  0  0  0
   -0.0807   -2.6014   -1.9481 H   0  0  0  0  0  0  0  0  0  0  0  0
   -1.6614   -2.0295   -0.0518 H   0  0  0  0  0  0  0  0  0  0  0  0
    0.1756   -0.2291    1.9896 H   0  0  0  0  0  0  0  0  0  0  0  0
    0.3234    1.2577   -0.6905 H   0  0  0  0  0  0  0  0  0  0  0  0
   -0.9721    2.6730    0.4636 H   0  0  0  0  0  0  0  0  0  0  0  0
   -1.8218    0.5817   -1.2264 H   0  0  0  0  0  0  0  0  0  0  0  0
   -3.9269    2.3392   -0.2163 H   0  0  0  0  0  0  0  0  0  0  0  0
   -4.1788   -1.9313   -0.3338 H   0  0  0  0  0  0  0  0  0  0  0  0
    2.2640   -0.7457   -1.0302 H   0  0  0  0  0  0  0  0  0  0  0  0
    4.6623   -0.2290   -1.1280 H   0  0  0  0  0  0  0  0  0  0  0  0
    4.3632    1.6218    2.6607 H   0  0  0  0  0  0  0  0  0  0  0  0
  1  2  1  0
  2  3  1  0
  3  4  1  0
  4  5  1  0
  5  6  1  0
  6  7  1  0
  6  8  1  0
  8  9  1  0
  9 10  1  0
 10 11  1  0
 10 12  1  0
 10 13  2  0
  5 14  1  0
 14 15  1  0
 15 16  2  0
 16 17  1  0
 17 18  2  0
 17 19  1  0
 19 20  1  0
 20 21  2  0
  8  3  1  0
 20 14  1  0
  1 22  1  0
  2 23  1  0
  2 24  1  0
  3 25  1  1
  5 26  1  1
  6 27  1  6
  7 28  1  0
  8 29  1  6
 11 30  1  0
 12 31  1  0
 15 32  1  0
 16 33  1  0
 19 34  1  0
M  END
$$$$
