
     RDKit          3D

 29 30  0  0  0  0  0  0  0  0999 V2000
   -1.6225   -1.8118    1.0547 C   0  0  0  0  0  0  0  0  0  0  0  0
   -2.3063   -0.5339    0.6555 C   0  0  0  0  0  0  0  0  0  0  0  0
   -1.6349    0.6380    0.5462 C   0  0  0  0  0  0  0  0  0  0  0  0
   -2.5166    2.1938    0.3421 S   0  0  0  0  0  0  0  0  0  0  0  0
   -3.7107    1.5053   -0.8324 C   0  0  0  0  0  0  0  0  0  0  0  0
   -4.5100    0.4407   -0.0953 C   0  0  0  0  0  0  0  0  0  0  0  0
   -3.6734   -0.6333    0.3390 O   0  0  0  0  0  0  0  0  0  0  0  0
   -0.1644    0.7261    0.6340 C   0  0  0  0  0  0  0  0  0  0  0  0
    0.3472    1.5414    1.4475 O   0  0  0  0  0  0  0  0  0  0  0  0
    0.6694   -0.0902   -0.2067 N   0  0  0  0  0  0  0  0  0  0  0  0
    2.1059   -0.0813   -0.1697 C   0  0  0  0  0  0  0  0  0  0  0  0
    2.8312    1.1180   -0.0425 C   0  0  0  0  0  0  0  0  0  0  0  0
    4.2297    1.0982   -0.0351 C   0  0  0  0  0  0  0  0  0  0  0  0
    4.9145   -0.1124   -0.1684 C   0  0  0  0  0  0  0  0  0  0  0  0
    4.2019   -1.3047   -0.3195 C   0  0  0  0  0  0  0  0  0  0  0  0
    2.8037   -1.2887   -0.3285 C   0  0  0  0  0  0  0  0  0  0  0  0
   -2.3543   -2.4820    1.5525 H   0  0  0  0  0  0  0  0  0  0  0  0
   -1.2347   -2.3316    0.1550 H   0  0  0  0  0  0  0  0  0  0  0  0
   -0.7953   -1.6259    1.7722 H   0  0  0  0  0  0  0  0  0  0  0  0
   -3.1892    1.0692   -1.7118 H   0  0  0  0  0  0  0  0  0  0  0  0
   -4.3897    2.3134   -1.1769 H   0  0  0  0  0  0  0  0  0  0  0  0
   -5.0116    0.8921    0.7878 H   0  0  0  0  0  0  0  0  0  0  0  0
   -5.2958    0.0351   -0.7664 H   0  0  0  0  0  0  0  0  0  0  0  0
    0.2091   -0.7841   -0.8370 H   0  0  0  0  0  0  0  0  0  0  0  0
    2.3227    2.0704    0.0214 H   0  0  0  0  0  0  0  0  0  0  0  0
    4.7828    2.0233    0.0639 H   0  0  0  0  0  0  0  0  0  0  0  0
    5.9967   -0.1255   -0.1642 H   0  0  0  0  0  0  0  0  0  0  0  0
    4.7327   -2.2412   -0.4320 H   0  0  0  0  0  0  0  0  0  0  0  0
    2.2616   -2.2185   -0.4481 H   0  0  0  0  0  0  0  0  0  0  0  0
  1  2  1  0
  2  3  2  0
  3  4  1  0
  4  5  1  0
  5  6  1  0
  6  7  1  0
  3  8  1  0
  8  9  2  0
  8 10  1  0
 10 11  1  0
 11 12  2  0
 12 13  1  0
 13 14  2  0
 14 15  1  0
 15 16  2  0
  7  2  1  0
 16 11  1  0
  1 17  1  0
  1 18  1  0
  1 19  1  0
  5 20  1  0
  5 21  1  0
  6 22  1  0
  6 23  1  0
 10 24  1  0
 12 25  1  0
 13 26  1  0
 14 27  1  0
 15 28  1  0
 16 29  1  0
M  END
$$$$
