
     RDKit          3D

 74 76  0  0  0  0  0  0  0  0999 V2000
   -6.0813    0.8152   -0.6413 C   0  0  1  0  0  0  0  0  0  0  0  0
   -6.6227    2.2519   -0.5683 C   0  0  0  0  0  0  0  0  0  0  0  0
   -5.7047    0.5079   -1.9610 O   0  0  0  0  0  0  0  0  0  0  0  0
   -4.9001    0.5488    0.3269 C   0  0  1  0  0  0  0  0  0  0  0  0
   -3.8625    1.4847    0.0716 O   0  0  0  0  0  0  0  0  0  0  0  0
   -2.6846    1.1780    0.8051 C   0  0  2  0  0  0  0  0  0  0  0  0
   -2.1767   -0.1006    0.4538 O   0  0  0  0  0  0  0  0  0  0  0  0
   -1.5373   -0.0778   -0.8144 C   0  0  2  0  0  0  0  0  0  0  0  0
   -1.8479   -1.4124   -1.5299 C   0  0  1  0  0  0  0  0  0  0  0  0
   -1.3229   -1.3995   -2.8991 N   0  0  0  0  0  0  0  0  0  0  0  0
   -1.2845   -2.6239   -0.7439 C   0  0  0  0  0  0  0  0  0  0  0  0
   -0.0096   -2.3034    0.0809 C   0  0  1  0  0  0  0  0  0  0  0  0
    0.8113   -3.5043    0.2619 N   0  0  0  0  0  0  0  0  0  0  0  0
    0.8255   -1.1787   -0.5614 C   0  0  2  0  0  0  0  0  0  0  0  0
    1.9968   -1.0000    0.2225 O   0  0  0  0  0  0  0  0  0  0  0  0
    3.0242   -0.3056   -0.4699 C   0  0  1  0  0  0  0  0  0  0  0  0
    2.9689    1.0593   -0.1043 O   0  0  0  0  0  0  0  0  0  0  0  0
    3.7587    1.8338   -0.9890 C   0  0  0  0  0  0  0  0  0  0  0  0
    5.2436    1.3449   -1.0694 C   0  0  2  0  0  0  0  0  0  0  0  0
    6.1884    2.5281   -0.7823 C   0  0  0  0  0  0  0  0  0  0  0  0
    5.5304    0.8978   -2.3761 O   0  0  0  0  0  0  0  0  0  0  0  0
    5.5076    0.2080   -0.0330 C   0  0  2  0  0  0  0  0  0  0  0  0
    6.8605   -0.3512   -0.2418 N   0  0  0  0  0  0  0  0  0  0  0  0
    7.3589   -1.0812    0.9265 C   0  0  0  0  0  0  0  0  0  0  0  0
    4.4048   -0.8936   -0.0730 C   0  0  1  0  0  0  0  0  0  0  0  0
    4.3286   -1.4996    1.1951 O   0  0  0  0  0  0  0  0  0  0  0  0
   -0.0040    0.1408   -0.6216 C   0  0  1  0  0  0  0  0  0  0  0  0
    0.4976    1.0009   -1.6149 O   0  0  0  0  0  0  0  0  0  0  0  0
   -2.9415    1.2510    2.3265 C   0  0  2  0  0  0  0  0  0  0  0  0
   -1.7281    0.8800    3.0596 N   0  0  0  0  0  0  0  0  0  0  0  0
   -4.1065    0.3229    2.7182 C   0  0  1  0  0  0  0  0  0  0  0  0
   -4.4488    0.5443    4.0626 O   0  0  0  0  0  0  0  0  0  0  0  0
   -5.3241    0.6064    1.8168 C   0  0  2  0  0  0  0  0  0  0  0  0
   -6.3638   -0.3012    2.0894 O   0  0  0  0  0  0  0  0  0  0  0  0
   -6.9163    0.1308   -0.3776 H   0  0  0  0  0  0  0  0  0  0  0  0
   -7.0906    2.4470    0.4183 H   0  0  0  0  0  0  0  0  0  0  0  0
   -5.8135    2.9920   -0.7432 H   0  0  0  0  0  0  0  0  0  0  0  0
   -7.4027    2.3947   -1.3459 H   0  0  0  0  0  0  0  0  0  0  0  0
   -4.9831    1.1373   -2.2245 H   0  0  0  0  0  0  0  0  0  0  0  0
   -4.5513   -0.4855    0.1017 H   0  0  0  0  0  0  0  0  0  0  0  0
   -1.9328    1.9703    0.5794 H   0  0  0  0  0  0  0  0  0  0  0  0
   -1.9439    0.7358   -1.4647 H   0  0  0  0  0  0  0  0  0  0  0  0
   -2.9555   -1.5236   -1.5866 H   0  0  0  0  0  0  0  0  0  0  0  0
   -1.7706   -0.6094   -3.4183 H   0  0  0  0  0  0  0  0  0  0  0  0
   -1.6416   -2.2695   -3.3847 H   0  0  0  0  0  0  0  0  0  0  0  0
   -1.0906   -3.4635   -1.4468 H   0  0  0  0  0  0  0  0  0  0  0  0
   -2.0654   -2.9869   -0.0397 H   0  0  0  0  0  0  0  0  0  0  0  0
   -0.3249   -1.9542    1.0908 H   0  0  0  0  0  0  0  0  0  0  0  0
    0.2314   -4.2397    0.7281 H   0  0  0  0  0  0  0  0  0  0  0  0
    1.0978   -3.8748   -0.6739 H   0  0  0  0  0  0  0  0  0  0  0  0
    1.0755   -1.5289   -1.5906 H   0  0  0  0  0  0  0  0  0  0  0  0
    2.9224   -0.4216   -1.5781 H   0  0  0  0  0  0  0  0  0  0  0  0
    3.2903    1.8530   -1.9993 H   0  0  0  0  0  0  0  0  0  0  0  0
    3.7074    2.8846   -0.6306 H   0  0  0  0  0  0  0  0  0  0  0  0
    6.0240    2.9279    0.2417 H   0  0  0  0  0  0  0  0  0  0  0  0
    7.2502    2.2140   -0.8732 H   0  0  0  0  0  0  0  0  0  0  0  0
    6.0114    3.3460   -1.5137 H   0  0  0  0  0  0  0  0  0  0  0  0
    4.9421    0.1272   -2.5819 H   0  0  0  0  0  0  0  0  0  0  0  0
    5.4587    0.6873    0.9736 H   0  0  0  0  0  0  0  0  0  0  0  0
    6.8649   -0.9968   -1.0659 H   0  0  0  0  0  0  0  0  0  0  0  0
    7.2778   -0.4626    1.8459 H   0  0  0  0  0  0  0  0  0  0  0  0
    8.4321   -1.3196    0.7726 H   0  0  0  0  0  0  0  0  0  0  0  0
    6.8118   -2.0382    1.0600 H   0  0  0  0  0  0  0  0  0  0  0  0
    4.6801   -1.6591   -0.8376 H   0  0  0  0  0  0  0  0  0  0  0  0
    4.0170   -2.4323    1.0559 H   0  0  0  0  0  0  0  0  0  0  0  0
    0.1389    0.6635    0.3498 H   0  0  0  0  0  0  0  0  0  0  0  0
    0.4063    0.5413   -2.4888 H   0  0  0  0  0  0  0  0  0  0  0  0
   -3.2167    2.3007    2.5832 H   0  0  0  0  0  0  0  0  0  0  0  0
   -1.8942    1.0398    4.0797 H   0  0  0  0  0  0  0  0  0  0  0  0
   -0.9633    1.5407    2.7893 H   0  0  0  0  0  0  0  0  0  0  0  0
   -3.7765   -0.7349    2.5792 H   0  0  0  0  0  0  0  0  0  0  0  0
   -4.9382   -0.2622    4.3719 H   0  0  0  0  0  0  0  0  0  0  0  0
   -5.6887    1.6294    2.0517 H   0  0  0  0  0  0  0  0  0  0  0  0
   -6.0338   -1.2117    1.8699 H   0  0  0  0  0  0  0  0  0  0  0  0
  1  2  1  0
  1  3  1  0
  1  4  1  0
  4  5  1  0
  5  6  1  0
  6  7  1  0
  7  8  1  0
  8  9  1  0
  9 10  1  0
  9 11  1  0
 11 12  1  0
 12 13  1  0
 12 14  1  0
 14 15  1  0
 15 16  1  0
 16 17  1  0
 17 18  1  0
 18 19  1  0
 19 20  1  0
 19 21  1  6
 19 22  1  0
 22 23  1  0
 23 24  1  0
 22 25  1  0
 25 26  1  0
 14 27  1  0
 27 28  1  0
  6 29  1  0
 29 30  1  0
 29 31  1  0
 31 32  1  0
 31 33  1  0
 33 34  1  0
 33  4  1  0
 27  8  1  0
 25 16  1  0
  1 35  1  1
  2 36  1  0
  2 37  1  0
  2 38  1  0
  3 39  1  0
  4 40  1  6
  6 41  1  6
  8 42  1  6
  9 43  1  6
 10 44  1  0
 10 45  1  0
 11 46  1  0
 11 47  1  0
 12 48  1  1
 13 49  1  0
 13 50  1  0
 14 51  1  6
 16 52  1  6
 18 53  1  0
 18 54  1  0
 20 55  1  0
 20 56  1  0
 20 57  1  0
 21 58  1  0
 22 59  1  1
 23 60  1  0
 24 61  1  0
 24 62  1  0
 24 63  1  0
 25 64  1  6
 26 65  1  0
 27 66  1  1
 28 67  1  0
 29 68  1  1
 30 69  1  0
 30 70  1  0
 31 71  1  1
 32 72  1  0
 33 73  1  1
 34 74  1  0
M  END
$$$$
