
     RDKit          3D

 48 50  0  0  0  0  0  0  0  0999 V2000
   -7.0369    0.8063   -0.6560 N   0  0  0  0  0  0  0  0  0  0  0  0
   -5.9244    0.8498    0.2372 C   0  0  0  0  0  0  0  0  0  0  0  0
   -4.7790    0.1700   -0.0778 N   0  0  0  0  0  0  0  0  0  0  0  0
   -3.7422    0.2280    0.7918 C   0  0  0  0  0  0  0  0  0  0  0  0
   -3.7941    0.9358    1.9410 C   0  0  0  0  0  0  0  0  0  0  0  0
   -2.6216    0.8596    2.5982 N   0  0  0  0  0  0  0  0  0  0  0  0
   -1.8723    0.0683    1.7811 C   0  0  0  0  0  0  0  0  0  0  0  0
   -2.5386   -0.3448    0.6704 N   0  0  0  0  0  0  0  0  0  0  0  0
   -2.0197   -1.1116   -0.4655 C   0  0  2  0  0  0  0  0  0  0  0  0
   -1.1366   -2.1120   -0.0008 O   0  0  0  0  0  0  0  0  0  0  0  0
    0.1205   -1.9005   -0.6041 C   0  0  2  0  0  0  0  0  0  0  0  0
    1.2265   -2.1798    0.4201 C   0  0  0  0  0  0  0  0  0  0  0  0
    2.4877   -2.0066   -0.1818 O   0  0  0  0  0  0  0  0  0  0  0  0
    3.6988   -2.3278    0.9790 P   0  0  0  0  0  5  0  0  0  0  0  0
    3.5058   -1.3532    2.3540 O   0  0  0  0  0  0  0  0  0  0  0  0
    3.6089   -3.7770    1.4017 O   0  0  0  0  0  0  0  0  0  0  0  0
    5.2292   -2.0804    0.2754 O   0  0  0  0  0  0  0  0  0  0  0  0
    5.4390   -0.4085    0.0200 P   0  0  0  0  0  5  0  0  0  0  0  0
    6.0601    0.2830    1.4367 O   0  0  0  0  0  0  0  0  0  0  0  0
    6.4564   -0.2409   -1.0871 O   0  0  0  0  0  0  0  0  0  0  0  0
    3.9663    0.3374   -0.4150 O   0  0  0  0  0  0  0  0  0  0  0  0
    4.2998    1.9210   -0.9438 P   0  0  0  0  0  5  0  0  0  0  0  0
    5.2625    2.7562    0.1742 O   0  0  0  0  0  0  0  0  0  0  0  0
    2.8298    2.7422   -1.1065 O   0  0  0  0  0  0  0  0  0  0  0  0
    4.9852    1.8818   -2.2925 O   0  0  0  0  0  0  0  0  0  0  0  0
    0.1637   -0.4730   -1.1441 C   0  0  1  0  0  0  0  0  0  0  0  0
    0.9520   -0.3815   -2.3041 O   0  0  0  0  0  0  0  0  0  0  0  0
   -1.2881   -0.1915   -1.4423 C   0  0  1  0  0  0  0  0  0  0  0  0
   -1.6162   -0.5552   -2.7611 O   0  0  0  0  0  0  0  0  0  0  0  0
   -4.9465    1.6328    2.2725 C   0  0  0  0  0  0  0  0  0  0  0  0
   -5.0194    2.3040    3.3362 O   0  0  0  0  0  0  0  0  0  0  0  0
   -6.0036    1.5729    1.4057 N   0  0  0  0  0  0  0  0  0  0  0  0
   -7.9193    1.3185   -0.4346 H   0  0  0  0  0  0  0  0  0  0  0  0
   -6.9788    0.2594   -1.5436 H   0  0  0  0  0  0  0  0  0  0  0  0
   -0.8434   -0.1875    1.9933 H   0  0  0  0  0  0  0  0  0  0  0  0
   -2.8716   -1.6134   -0.9767 H   0  0  0  0  0  0  0  0  0  0  0  0
    0.2248   -2.6221   -1.4463 H   0  0  0  0  0  0  0  0  0  0  0  0
    1.1053   -3.2287    0.7744 H   0  0  0  0  0  0  0  0  0  0  0  0
    1.0948   -1.4892    1.2818 H   0  0  0  0  0  0  0  0  0  0  0  0
    3.1173   -0.5048    2.0234 H   0  0  0  0  0  0  0  0  0  0  0  0
    5.2724    0.6271    1.9268 H   0  0  0  0  0  0  0  0  0  0  0  0
    6.1923    2.6502   -0.1506 H   0  0  0  0  0  0  0  0  0  0  0  0
    3.0827    3.6673   -1.3537 H   0  0  0  0  0  0  0  0  0  0  0  0
    0.5155    0.2439   -0.3630 H   0  0  0  0  0  0  0  0  0  0  0  0
    1.8846   -0.2267   -2.0065 H   0  0  0  0  0  0  0  0  0  0  0  0
   -1.5349    0.8823   -1.2608 H   0  0  0  0  0  0  0  0  0  0  0  0
   -1.4115    0.2293   -3.3344 H   0  0  0  0  0  0  0  0  0  0  0  0
   -6.8829    2.0895    1.6348 H   0  0  0  0  0  0  0  0  0  0  0  0
  1  2  1  0
  2  3  2  0
  3  4  1  0
  4  5  2  0
  5  6  1  0
  6  7  2  0
  7  8  1  0
  8  9  1  0
  9 10  1  0
 10 11  1  0
 11 12  1  0
 12 13  1  0
 13 14  1  0
 14 15  1  0
 14 16  2  0
 14 17  1  0
 17 18  1  0
 18 19  1  0
 18 20  2  0
 18 21  1  0
 21 22  1  0
 22 23  1  0
 22 24  1  0
 22 25  2  0
 11 26  1  0
 26 27  1  0
 26 28  1  0
 28 29  1  0
  5 30  1  0
 30 31  2  0
 30 32  1  0
 32  2  1  0
  8  4  1  0
 28  9  1  0
  1 33  1  0
  1 34  1  0
  7 35  1  0
  9 36  1  6
 11 37  1  6
 12 38  1  0
 12 39  1  0
 15 40  1  0
 19 41  1  0
 23 42  1  0
 24 43  1  0
 26 44  1  1
 27 45  1  0
 28 46  1  1
 29 47  1  0
 32 48  1  0
M  END
$$$$
