
     RDKit          3D

 50 51  0  0  0  0  0  0  0  0999 V2000
   -6.9211    0.7144   -0.0129 C   0  0  0  0  0  0  0  0  0  0  0  0
   -5.7625   -0.2140    0.3699 C   0  0  0  0  0  0  0  0  0  0  0  0
   -5.5429   -0.2258    1.8874 C   0  0  0  0  0  0  0  0  0  0  0  0
   -4.4903    0.1679   -0.3633 C   0  0  0  0  0  0  0  0  0  0  0  0
   -3.8920    1.4277   -0.1733 C   0  0  0  0  0  0  0  0  0  0  0  0
   -2.7182    1.7649   -0.8523 C   0  0  0  0  0  0  0  0  0  0  0  0
   -2.1157    0.8480   -1.7259 C   0  0  0  0  0  0  0  0  0  0  0  0
   -0.8532    1.2200   -2.4575 C   0  0  0  0  0  0  0  0  0  0  0  0
    0.1340    1.7093   -1.5490 O   0  0  0  0  0  0  0  0  0  0  0  0
    0.8075    0.9384   -0.5860 C   0  0  0  0  0  0  0  0  0  0  0  0
    1.6576    1.5896    0.3212 C   0  0  0  0  0  0  0  0  0  0  0  0
    1.8762    3.3312    0.2428 Cl  0  0  0  0  0  0  0  0  0  0  0  0
    2.3427    0.8595    1.2982 C   0  0  0  0  0  0  0  0  0  0  0  0
    2.1848   -0.5316    1.3864 C   0  0  0  0  0  0  0  0  0  0  0  0
    2.9755   -1.3230    2.3913 C   0  0  0  0  0  0  0  0  0  0  0  0
    4.2864   -1.7233    1.7896 C   0  0  0  0  0  0  0  0  0  0  0  0
    4.4018   -2.8577    1.2513 O   0  0  0  0  0  0  0  0  0  0  0  0
    5.3762   -0.7911    1.7605 N   0  0  0  0  0  0  0  0  0  0  0  0
    6.4734   -0.9019    0.8016 C   0  0  0  0  0  0  0  0  0  0  0  0
    6.1652   -0.0867   -0.4563 C   0  0  0  0  0  0  0  0  0  0  0  0
    4.9721   -0.5983   -1.1250 N   0  0  0  0  0  0  0  0  0  0  0  0
    1.3492   -1.1870    0.4708 C   0  0  0  0  0  0  0  0  0  0  0  0
    0.6623   -0.4602   -0.5048 C   0  0  0  0  0  0  0  0  0  0  0  0
   -2.7164   -0.4031   -1.9295 C   0  0  0  0  0  0  0  0  0  0  0  0
   -3.8904   -0.7419   -1.2510 C   0  0  0  0  0  0  0  0  0  0  0  0
   -7.8627    0.3615    0.4594 H   0  0  0  0  0  0  0  0  0  0  0  0
   -7.0633    0.7109   -1.1148 H   0  0  0  0  0  0  0  0  0  0  0  0
   -6.7280    1.7558    0.3214 H   0  0  0  0  0  0  0  0  0  0  0  0
   -6.0627   -1.2452    0.0776 H   0  0  0  0  0  0  0  0  0  0  0  0
   -5.3159    0.7926    2.2679 H   0  0  0  0  0  0  0  0  0  0  0  0
   -4.6995   -0.9019    2.1445 H   0  0  0  0  0  0  0  0  0  0  0  0
   -6.4551   -0.5987    2.4004 H   0  0  0  0  0  0  0  0  0  0  0  0
   -4.3322    2.1515    0.5002 H   0  0  0  0  0  0  0  0  0  0  0  0
   -2.2754    2.7405   -0.6933 H   0  0  0  0  0  0  0  0  0  0  0  0
   -0.4419    0.3685   -3.0417 H   0  0  0  0  0  0  0  0  0  0  0  0
   -1.0941    2.0260   -3.1817 H   0  0  0  0  0  0  0  0  0  0  0  0
    3.0033    1.3755    1.9842 H   0  0  0  0  0  0  0  0  0  0  0  0
    3.1521   -0.7192    3.3078 H   0  0  0  0  0  0  0  0  0  0  0  0
    2.4085   -2.2279    2.7019 H   0  0  0  0  0  0  0  0  0  0  0  0
    5.2802    0.1069    2.2863 H   0  0  0  0  0  0  0  0  0  0  0  0
    7.4006   -0.5065    1.2690 H   0  0  0  0  0  0  0  0  0  0  0  0
    6.6622   -1.9641    0.5341 H   0  0  0  0  0  0  0  0  0  0  0  0
    7.0352   -0.1323   -1.1485 H   0  0  0  0  0  0  0  0  0  0  0  0
    6.0021    0.9763   -0.1724 H   0  0  0  0  0  0  0  0  0  0  0  0
    5.2020   -1.5325   -1.5354 H   0  0  0  0  0  0  0  0  0  0  0  0
    4.7591    0.0368   -1.9279 H   0  0  0  0  0  0  0  0  0  0  0  0
    1.2363   -2.2636    0.5070 H   0  0  0  0  0  0  0  0  0  0  0  0
    0.0313   -0.9992   -1.1960 H   0  0  0  0  0  0  0  0  0  0  0  0
   -2.2741   -1.1206   -2.6095 H   0  0  0  0  0  0  0  0  0  0  0  0
   -4.3303   -1.7168   -1.4207 H   0  0  0  0  0  0  0  0  0  0  0  0
  1  2  1  0
  2  3  1  0
  2  4  1  0
  4  5  2  0
  5  6  1  0
  6  7  2  0
  7  8  1  0
  8  9  1  0
  9 10  1  0
 10 11  2  0
 11 12  1  0
 11 13  1  0
 13 14  2  0
 14 15  1  0
 15 16  1  0
 16 17  2  0
 16 18  1  0
 18 19  1  0
 19 20  1  0
 20 21  1  0
 14 22  1  0
 22 23  2  0
  7 24  1  0
 24 25  2  0
 25  4  1  0
 23 10  1  0
  1 26  1  0
  1 27  1  0
  1 28  1  0
  2 29  1  0
  3 30  1  0
  3 31  1  0
  3 32  1  0
  5 33  1  0
  6 34  1  0
  8 35  1  0
  8 36  1  0
 13 37  1  0
 15 38  1  0
 15 39  1  0
 18 40  1  0
 19 41  1  0
 19 42  1  0
 20 43  1  0
 20 44  1  0
 21 45  1  0
 21 46  1  0
 22 47  1  0
 23 48  1  0
 24 49  1  0
 25 50  1  0
M  END
$$$$
