
     RDKit          3D

113121  0  0  0  0  0  0  0  0999 V2000
   -3.0872   -2.1534   -1.5109 C   0  0  0  0  0  0  0  0  0  0  0  0
   -3.9268   -2.3515   -0.2377 C   0  0  0  0  0  0  0  0  0  0  0  0
   -3.8676   -1.1972    0.8274 C   0  0  1  0  0  0  0  0  0  0  0  0
   -4.9408   -1.5709    1.8537 C   0  0  0  0  0  0  0  0  0  0  0  0
   -4.7175   -1.6343    3.1673 C   0  0  0  0  0  0  0  0  0  0  0  0
   -3.3933   -1.2570    3.7296 C   0  0  0  0  0  0  0  0  0  0  0  0
   -2.3186   -1.7131    2.8352 N   0  0  0  0  0  0  0  0  0  0  0  0
   -1.0205   -1.2400    3.3324 C   0  0  0  0  0  0  0  0  0  0  0  0
   -0.8035    0.1596    2.7759 C   0  0  0  0  0  0  0  0  0  0  0  0
   -1.6554    0.2244    1.4864 C   0  0  1  0  0  0  0  0  0  0  0  0
   -2.4229   -1.1369    1.4794 C   0  0  2  0  0  0  0  0  0  0  0  0
   -2.5065    1.5659    1.4041 C   0  0  1  0  0  0  0  0  0  0  0  0
   -1.8388    2.3709    0.3652 N   0  0  0  0  0  0  0  0  0  0  0  0
   -1.7306    3.8304    0.4129 C   0  0  0  0  0  0  0  0  0  0  0  0
   -0.8823    1.5684   -0.2986 C   0  0  0  0  0  0  0  0  0  0  0  0
   -0.1329    1.9332   -1.4123 C   0  0  0  0  0  0  0  0  0  0  0  0
    0.8291    1.0332   -1.9245 C   0  0  0  0  0  0  0  0  0  0  0  0
    1.4930    1.3169   -3.1263 O   0  0  0  0  0  0  0  0  0  0  0  0
    1.3382    2.5116   -3.8851 C   0  0  0  0  0  0  0  0  0  0  0  0
    1.1053   -0.1869   -1.2261 C   0  0  0  0  0  0  0  0  0  0  0  0
    0.2450   -0.5353   -0.1492 C   0  0  0  0  0  0  0  0  0  0  0  0
   -0.7414    0.3526    0.2870 C   0  0  0  0  0  0  0  0  0  0  0  0
    2.2165   -1.1796   -1.6879 C   0  0  1  0  0  0  0  0  0  0  0  0
    3.5723   -0.4696   -2.1338 C   0  0  0  0  0  0  0  0  0  0  0  0
    4.1734    0.3386   -0.9853 C   0  0  2  0  0  0  0  0  0  0  0  0
    4.8648    1.6812   -1.1344 C   0  0  0  0  0  0  0  0  0  0  0  0
    5.3309    2.1542    0.3079 C   0  0  2  0  0  0  0  0  0  0  0  0
    4.7401    1.2950    1.5257 C   0  0  0  0  0  0  0  0  0  0  0  0
    4.6303   -0.1943    1.2980 N   0  0  0  0  0  0  0  0  0  0  0  0
    5.0520   -0.5150   -0.0644 C   0  0  0  0  0  0  0  0  0  0  0  0
    3.2454   -0.7206    1.5671 C   0  0  0  0  0  0  0  0  0  0  0  0
    2.8964   -2.0147    0.8101 C   0  0  0  0  0  0  0  0  0  0  0  0
    2.5371   -2.2279   -0.5693 C   0  0  0  0  0  0  0  0  0  0  0  0
    2.5225   -3.5668   -0.8125 N   0  0  0  0  0  0  0  0  0  0  0  0
    2.8455   -4.1845    0.3321 C   0  0  0  0  0  0  0  0  0  0  0  0
    2.9729   -5.5591    0.5313 C   0  0  0  0  0  0  0  0  0  0  0  0
    3.3619   -6.0082    1.8047 C   0  0  0  0  0  0  0  0  0  0  0  0
    3.6214   -5.0829    2.8373 C   0  0  0  0  0  0  0  0  0  0  0  0
    3.4901   -3.7023    2.6053 C   0  0  0  0  0  0  0  0  0  0  0  0
    3.0867   -3.2838    1.3330 C   0  0  0  0  0  0  0  0  0  0  0  0
    5.0750    3.6656    0.5313 C   0  0  0  0  0  0  0  0  0  0  0  0
    5.8642    4.5349   -0.4521 C   0  0  0  0  0  0  0  0  0  0  0  0
    5.4637    4.0142    1.8147 F   0  0  0  0  0  0  0  0  0  0  0  0
    3.7238    3.9399    0.3954 F   0  0  0  0  0  0  0  0  0  0  0  0
    1.6376   -1.8980   -2.8990 C   0  0  0  0  0  0  0  0  0  0  0  0
    0.4589   -2.3516   -2.8536 O   0  0  0  0  0  0  0  0  0  0  0  0
    2.4190   -2.1094   -4.0415 O   0  0  0  0  0  0  0  0  0  0  0  0
    1.9319   -2.7958   -5.1877 C   0  0  0  0  0  0  0  0  0  0  0  0
   -4.0358    1.3848    1.0821 C   0  0  2  0  0  0  0  0  0  0  0  0
   -4.7602    1.1743    2.2725 O   0  0  0  0  0  0  0  0  0  0  0  0
   -4.2524    0.1597    0.1527 C   0  0  2  0  0  0  0  0  0  0  0  0
   -5.6260    0.1060   -0.2638 O   0  0  0  0  0  0  0  0  0  0  0  0
   -6.0722    0.2952   -1.5777 C   0  0  0  0  0  0  0  0  0  0  0  0
   -7.5248    0.1588   -1.8799 C   0  0  0  0  0  0  0  0  0  0  0  0
   -5.2639    0.5440   -2.5125 O   0  0  0  0  0  0  0  0  0  0  0  0
   -4.6013    2.6348    0.4143 C   0  0  0  0  0  0  0  0  0  0  0  0
   -4.4360    2.8256   -0.8233 O   0  0  0  0  0  0  0  0  0  0  0  0
   -5.2537    3.6027    1.1859 O   0  0  0  0  0  0  0  0  0  0  0  0
   -5.7604    4.8104    0.6317 C   0  0  0  0  0  0  0  0  0  0  0  0
   -2.9984   -3.1238   -2.0433 H   0  0  0  0  0  0  0  0  0  0  0  0
   -3.5842   -1.4446   -2.2021 H   0  0  0  0  0  0  0  0  0  0  0  0
   -2.0658   -1.7868   -1.2971 H   0  0  0  0  0  0  0  0  0  0  0  0
   -4.9770   -2.5159   -0.5684 H   0  0  0  0  0  0  0  0  0  0  0  0
   -3.6008   -3.3001    0.2450 H   0  0  0  0  0  0  0  0  0  0  0  0
   -5.9446   -1.8001    1.5045 H   0  0  0  0  0  0  0  0  0  0  0  0
   -5.5216   -1.9228    3.8377 H   0  0  0  0  0  0  0  0  0  0  0  0
   -3.3571   -0.1581    3.8874 H   0  0  0  0  0  0  0  0  0  0  0  0
   -3.2870   -1.7484    4.7212 H   0  0  0  0  0  0  0  0  0  0  0  0
   -0.2234   -1.9158    2.9498 H   0  0  0  0  0  0  0  0  0  0  0  0
   -0.9575   -1.2507    4.4445 H   0  0  0  0  0  0  0  0  0  0  0  0
   -1.1386    0.8871    3.5447 H   0  0  0  0  0  0  0  0  0  0  0  0
    0.2800    0.3430    2.6019 H   0  0  0  0  0  0  0  0  0  0  0  0
   -1.8042   -1.8361    0.8849 H   0  0  0  0  0  0  0  0  0  0  0  0
   -2.4300    2.1333    2.3561 H   0  0  0  0  0  0  0  0  0  0  0  0
   -2.3899    4.2487    1.2022 H   0  0  0  0  0  0  0  0  0  0  0  0
   -2.0306    4.2590   -0.5658 H   0  0  0  0  0  0  0  0  0  0  0  0
   -0.6836    4.1255    0.6367 H   0  0  0  0  0  0  0  0  0  0  0  0
   -0.3195    2.8883   -1.8821 H   0  0  0  0  0  0  0  0  0  0  0  0
    1.6342    3.3914   -3.2755 H   0  0  0  0  0  0  0  0  0  0  0  0
    1.9966    2.4609   -4.7762 H   0  0  0  0  0  0  0  0  0  0  0  0
    0.2865    2.6146   -4.2264 H   0  0  0  0  0  0  0  0  0  0  0  0
    0.3393   -1.4774    0.3664 H   0  0  0  0  0  0  0  0  0  0  0  0
    3.4594    0.1751   -3.0225 H   0  0  0  0  0  0  0  0  0  0  0  0
    4.3042   -1.2431   -2.4574 H   0  0  0  0  0  0  0  0  0  0  0  0
    3.2729    0.7039   -0.4703 H   0  0  0  0  0  0  0  0  0  0  0  0
    5.7430    1.5825   -1.8093 H   0  0  0  0  0  0  0  0  0  0  0  0
    4.1591    2.4040   -1.6025 H   0  0  0  0  0  0  0  0  0  0  0  0
    6.4341    2.0069    0.3487 H   0  0  0  0  0  0  0  0  0  0  0  0
    3.7587    1.7308    1.8157 H   0  0  0  0  0  0  0  0  0  0  0  0
    5.3988    1.4498    2.4065 H   0  0  0  0  0  0  0  0  0  0  0  0
    5.0381   -1.6041   -0.2703 H   0  0  0  0  0  0  0  0  0  0  0  0
    6.1357   -0.2895   -0.1882 H   0  0  0  0  0  0  0  0  0  0  0  0
    3.1548   -0.8994    2.6573 H   0  0  0  0  0  0  0  0  0  0  0  0
    2.4540    0.0261    1.3589 H   0  0  0  0  0  0  0  0  0  0  0  0
    2.3243   -4.0512   -1.7159 H   0  0  0  0  0  0  0  0  0  0  0  0
    2.7836   -6.2604   -0.2712 H   0  0  0  0  0  0  0  0  0  0  0  0
    3.4694   -7.0686    1.9920 H   0  0  0  0  0  0  0  0  0  0  0  0
    3.9276   -5.4375    3.8128 H   0  0  0  0  0  0  0  0  0  0  0  0
    3.6999   -2.9971    3.3975 H   0  0  0  0  0  0  0  0  0  0  0  0
    6.9512    4.3208   -0.3717 H   0  0  0  0  0  0  0  0  0  0  0  0
    5.5353    4.3575   -1.4969 H   0  0  0  0  0  0  0  0  0  0  0  0
    5.6990    5.6074   -0.2161 H   0  0  0  0  0  0  0  0  0  0  0  0
    1.6455   -3.8338   -4.9155 H   0  0  0  0  0  0  0  0  0  0  0  0
    1.0531   -2.2606   -5.6058 H   0  0  0  0  0  0  0  0  0  0  0  0
    2.7303   -2.8327   -5.9568 H   0  0  0  0  0  0  0  0  0  0  0  0
   -4.5721    1.9184    2.9025 H   0  0  0  0  0  0  0  0  0  0  0  0
   -3.5918    0.3156   -0.7269 H   0  0  0  0  0  0  0  0  0  0  0  0
   -8.1212    0.3356   -0.9604 H   0  0  0  0  0  0  0  0  0  0  0  0
   -7.7290   -0.8653   -2.2553 H   0  0  0  0  0  0  0  0  0  0  0  0
   -7.8253    0.9001   -2.6501 H   0  0  0  0  0  0  0  0  0  0  0  0
   -6.2322    5.4107    1.4363 H   0  0  0  0  0  0  0  0  0  0  0  0
   -6.5231    4.5823   -0.1427 H   0  0  0  0  0  0  0  0  0  0  0  0
   -4.9321    5.3982    0.1821 H   0  0  0  0  0  0  0  0  0  0  0  0
  1  2  1  0
  3  2  1  6
  3  4  1  0
  4  5  2  0
  5  6  1  0
  6  7  1  0
  7  8  1  0
  8  9  1  0
 10  9  1  1
 10 11  1  0
 10 12  1  0
 12 13  1  0
 13 14  1  0
 13 15  1  0
 15 16  2  0
 16 17  1  0
 17 18  1  0
 18 19  1  0
 17 20  2  0
 20 21  1  0
 21 22  2  0
 20 23  1  0
 23 24  1  0
 24 25  1  0
 25 26  1  0
 26 27  1  0
 27 28  1  0
 29 28  1  1
 29 30  1  0
 29 31  1  0
 31 32  1  0
 32 33  2  0
 33 34  1  0
 34 35  1  0
 35 36  2  0
 36 37  1  0
 37 38  2  0
 38 39  1  0
 39 40  2  0
 27 41  1  0
 41 42  1  0
 41 43  1  0
 41 44  1  0
 23 45  1  6
 45 46  2  0
 45 47  1  0
 47 48  1  0
 12 49  1  0
 49 50  1  1
 49 51  1  0
 51 52  1  0
 52 53  1  0
 53 54  1  0
 53 55  2  0
 49 56  1  0
 56 57  2  0
 56 58  1  0
 58 59  1  0
 11  3  1  0
 22 15  1  0
 33 23  1  0
 40 35  1  0
 51  3  1  0
 11  7  1  0
 30 25  1  0
 40 32  1  0
 22 10  1  0
  1 60  1  0
  1 61  1  0
  1 62  1  0
  2 63  1  0
  2 64  1  0
  4 65  1  0
  5 66  1  0
  6 67  1  0
  6 68  1  0
  8 69  1  0
  8 70  1  0
  9 71  1  0
  9 72  1  0
 11 73  1  6
 12 74  1  1
 14 75  1  0
 14 76  1  0
 14 77  1  0
 16 78  1  0
 19 79  1  0
 19 80  1  0
 19 81  1  0
 21 82  1  0
 24 83  1  0
 24 84  1  0
 25 85  1  1
 26 86  1  0
 26 87  1  0
 27 88  1  6
 28 89  1  0
 28 90  1  0
 30 91  1  0
 30 92  1  0
 31 93  1  0
 31 94  1  0
 34 95  1  0
 36 96  1  0
 37 97  1  0
 38 98  1  0
 39 99  1  0
 42100  1  0
 42101  1  0
 42102  1  0
 48103  1  0
 48104  1  0
 48105  1  0
 50106  1  0
 51107  1  6
 54108  1  0
 54109  1  0
 54110  1  0
 59111  1  0
 59112  1  0
 59113  1  0
M  END
$$$$
