
     RDKit          3D

 30 32  0  0  0  0  0  0  0  0999 V2000
    0.0619    0.0206   -2.0259 C   0  0  0  0  0  0  0  0  0  0  0  0
   -0.8287    0.1504   -0.8295 C   0  0  0  0  0  0  0  0  0  0  0  0
   -0.6448    0.9628    0.2883 C   0  0  0  0  0  0  0  0  0  0  0  0
   -1.6805    0.8741    1.1021 O   0  0  0  0  0  0  0  0  0  0  0  0
   -2.5412    0.0493    0.5557 C   0  0  0  0  0  0  0  0  0  0  0  0
   -3.7826   -0.3353    1.0559 C   0  0  0  0  0  0  0  0  0  0  0  0
   -4.5546   -1.2258    0.2874 C   0  0  0  0  0  0  0  0  0  0  0  0
   -4.0735   -1.7052   -0.9529 C   0  0  0  0  0  0  0  0  0  0  0  0
   -5.0511   -2.8110   -1.8999 Cl  0  0  0  0  0  0  0  0  0  0  0  0
   -2.8134   -1.2991   -1.4323 C   0  0  0  0  0  0  0  0  0  0  0  0
   -2.0700   -0.4207   -0.6436 C   0  0  0  0  0  0  0  0  0  0  0  0
    0.7504    1.9797    0.6086 S   0  0  0  0  0  6  0  0  0  0  0  0
    0.4845    2.8144    1.8293 O   0  0  0  0  0  0  0  0  0  0  0  0
    0.9746    2.8833   -0.5714 O   0  0  0  0  0  0  0  0  0  0  0  0
    2.1677    0.9818    0.8867 C   0  0  0  0  0  0  0  0  0  0  0  0
    2.0216   -0.3297    1.2141 N   0  0  0  0  0  0  0  0  0  0  0  0
    3.0758   -1.1191    1.4312 N   0  0  0  0  0  0  0  0  0  0  0  0
    4.3463   -0.6398    1.3348 C   0  0  0  0  0  0  0  0  0  0  0  0
    5.3292   -1.3999    1.5427 O   0  0  0  0  0  0  0  0  0  0  0  0
    4.5529    0.7001    1.0045 C   0  0  0  0  0  0  0  0  0  0  0  0
    3.4505    1.5213    0.7787 C   0  0  0  0  0  0  0  0  0  0  0  0
    1.1245    0.1464   -1.7332 H   0  0  0  0  0  0  0  0  0  0  0  0
   -0.2060    0.7975   -2.7714 H   0  0  0  0  0  0  0  0  0  0  0  0
   -0.0545   -0.9830   -2.4848 H   0  0  0  0  0  0  0  0  0  0  0  0
   -4.1438    0.0419    2.0037 H   0  0  0  0  0  0  0  0  0  0  0  0
   -5.5242   -1.5412    0.6507 H   0  0  0  0  0  0  0  0  0  0  0  0
   -2.4357   -1.6582   -2.3808 H   0  0  0  0  0  0  0  0  0  0  0  0
    2.9152   -2.1210    1.6790 H   0  0  0  0  0  0  0  0  0  0  0  0
    5.5555    1.1018    0.9238 H   0  0  0  0  0  0  0  0  0  0  0  0
    3.5942    2.5634    0.5230 H   0  0  0  0  0  0  0  0  0  0  0  0
  1  2  1  0
  2  3  2  0
  3  4  1  0
  4  5  1  0
  5  6  2  0
  6  7  1  0
  7  8  2  0
  8  9  1  0
  8 10  1  0
 10 11  2  0
  3 12  1  0
 12 13  2  0
 12 14  2  0
 12 15  1  0
 15 16  2  0
 16 17  1  0
 17 18  1  0
 18 19  2  0
 18 20  1  0
 20 21  2  0
 11  2  1  0
 21 15  1  0
 11  5  1  0
  1 22  1  0
  1 23  1  0
  1 24  1  0
  6 25  1  0
  7 26  1  0
 10 27  1  0
 17 28  1  0
 20 29  1  0
 21 30  1  0
M  END
$$$$
