
     RDKit          3D

 29 29  0  0  0  0  0  0  0  0999 V2000
   -2.2509   -1.6111    0.6103 N   0  0  0  0  0  0  0  0  0  0  0  0
   -2.1142   -0.1663    0.8141 C   0  0  1  0  0  0  0  0  0  0  0  0
   -1.1856    0.4535   -0.2519 C   0  0  0  0  0  0  0  0  0  0  0  0
    0.2357   -0.1612   -0.2852 C   0  0  0  0  0  0  0  0  0  0  0  0
    0.9858    0.3389   -1.5388 C   0  0  0  0  0  0  0  0  0  0  0  0
    2.4094   -0.2266   -1.6034 C   0  0  0  0  0  0  0  0  0  0  0  0
    3.1967    0.1290   -0.3389 C   0  0  0  0  0  0  0  0  0  0  0  0
    2.4706   -0.3729    0.9128 C   0  0  0  0  0  0  0  0  0  0  0  0
    1.0432    0.1848    0.9874 C   0  0  0  0  0  0  0  0  0  0  0  0
   -3.4624    0.5058    0.7852 C   0  0  0  0  0  0  0  0  0  0  0  0
   -3.8773    1.2692    1.8721 O   0  0  0  0  0  0  0  0  0  0  0  0
   -4.2119    0.3910   -0.2223 O   0  0  0  0  0  0  0  0  0  0  0  0
   -2.7217   -1.7937   -0.3063 H   0  0  0  0  0  0  0  0  0  0  0  0
   -2.8647   -2.0004    1.3630 H   0  0  0  0  0  0  0  0  0  0  0  0
   -1.6774    0.0077    1.8198 H   0  0  0  0  0  0  0  0  0  0  0  0
   -1.1066    1.5495   -0.0751 H   0  0  0  0  0  0  0  0  0  0  0  0
   -1.6591    0.3157   -1.2498 H   0  0  0  0  0  0  0  0  0  0  0  0
    0.1471   -1.2679   -0.3616 H   0  0  0  0  0  0  0  0  0  0  0  0
    0.4388    0.0226   -2.4538 H   0  0  0  0  0  0  0  0  0  0  0  0
    1.0327    1.4508   -1.5360 H   0  0  0  0  0  0  0  0  0  0  0  0
    2.3686   -1.3319   -1.7216 H   0  0  0  0  0  0  0  0  0  0  0  0
    2.9313    0.1936   -2.4900 H   0  0  0  0  0  0  0  0  0  0  0  0
    4.2042   -0.3370   -0.3905 H   0  0  0  0  0  0  0  0  0  0  0  0
    3.3308    1.2315   -0.2778 H   0  0  0  0  0  0  0  0  0  0  0  0
    2.4369   -1.4847    0.9043 H   0  0  0  0  0  0  0  0  0  0  0  0
    3.0359   -0.0554    1.8155 H   0  0  0  0  0  0  0  0  0  0  0  0
    0.5569   -0.2550    1.8825 H   0  0  0  0  0  0  0  0  0  0  0  0
    1.0854    1.2881    1.1242 H   0  0  0  0  0  0  0  0  0  0  0  0
   -4.7782    1.7323    1.8681 H   0  0  0  0  0  0  0  0  0  0  0  0
  1  2  1  0
  2  3  1  0
  3  4  1  0
  4  5  1  0
  5  6  1  0
  6  7  1  0
  7  8  1  0
  8  9  1  0
  2 10  1  0
 10 11  1  0
 10 12  2  0
  9  4  1  0
  1 13  1  0
  1 14  1  0
  2 15  1  1
  3 16  1  0
  3 17  1  0
  4 18  1  0
  5 19  1  0
  5 20  1  0
  6 21  1  0
  6 22  1  0
  7 23  1  0
  7 24  1  0
  8 25  1  0
  8 26  1  0
  9 27  1  0
  9 28  1  0
 11 29  1  0
M  END
$$$$
