
     RDKit          3D

 32 34  0  0  0  0  0  0  0  0999 V2000
   -0.5727    1.6439    0.4702 C   0  0  2  0  0  0  0  0  0  0  0  0
   -1.6288    2.9733   -0.2220 S   0  0  0  0  0  0  0  0  0  0  0  0
   -0.6215    3.1537   -1.7310 C   0  0  0  0  0  0  0  0  0  0  0  0
    0.4418    2.1291   -1.6670 C   0  0  0  0  0  0  0  0  0  0  0  0
    1.3164    2.0268   -2.5687 O   0  0  0  0  0  0  0  0  0  0  0  0
    0.4408    1.2921   -0.5184 N   0  0  0  0  0  0  0  0  0  0  0  0
    1.3954    0.2347   -0.3110 C   0  0  0  0  0  0  0  0  0  0  0  0
    2.1655    0.2052    0.8630 C   0  0  0  0  0  0  0  0  0  0  0  0
    3.0786   -0.8306    1.0841 C   0  0  0  0  0  0  0  0  0  0  0  0
    4.0412   -0.8530    2.5503 Cl  0  0  0  0  0  0  0  0  0  0  0  0
    3.2240   -1.8478    0.1370 C   0  0  0  0  0  0  0  0  0  0  0  0
    2.4525   -1.8351   -1.0274 C   0  0  0  0  0  0  0  0  0  0  0  0
    1.5307   -0.8030   -1.2535 C   0  0  0  0  0  0  0  0  0  0  0  0
    0.7344   -0.8167   -2.3979 O   0  0  0  0  0  0  0  0  0  0  0  0
   -1.4193    0.4431    0.8176 C   0  0  0  0  0  0  0  0  0  0  0  0
   -1.5470    0.0286    2.1540 C   0  0  0  0  0  0  0  0  0  0  0  0
   -2.3148   -1.0953    2.4732 C   0  0  0  0  0  0  0  0  0  0  0  0
   -2.9597   -1.8143    1.4635 C   0  0  0  0  0  0  0  0  0  0  0  0
   -2.8397   -1.4099    0.1305 C   0  0  0  0  0  0  0  0  0  0  0  0
   -3.7151   -2.3963   -1.2504 Br  0  0  0  0  0  0  0  0  0  0  0  0
   -2.0745   -0.2845   -0.1924 C   0  0  0  0  0  0  0  0  0  0  0  0
   -0.0725    2.0547    1.3733 H   0  0  0  0  0  0  0  0  0  0  0  0
   -1.2561    2.9894   -2.6266 H   0  0  0  0  0  0  0  0  0  0  0  0
   -0.1719    4.1681   -1.7610 H   0  0  0  0  0  0  0  0  0  0  0  0
    2.0648    0.9919    1.5993 H   0  0  0  0  0  0  0  0  0  0  0  0
    3.9299   -2.6513    0.3045 H   0  0  0  0  0  0  0  0  0  0  0  0
    2.5637   -2.6341   -1.7493 H   0  0  0  0  0  0  0  0  0  0  0  0
    0.8058   -1.5572   -3.0858 H   0  0  0  0  0  0  0  0  0  0  0  0
   -1.0494    0.5707    2.9485 H   0  0  0  0  0  0  0  0  0  0  0  0
   -2.4078   -1.4107    3.5044 H   0  0  0  0  0  0  0  0  0  0  0  0
   -3.5506   -2.6849    1.7173 H   0  0  0  0  0  0  0  0  0  0  0  0
   -1.9840    0.0193   -1.2281 H   0  0  0  0  0  0  0  0  0  0  0  0
  1  2  1  0
  2  3  1  0
  3  4  1  0
  4  5  2  0
  4  6  1  0
  6  7  1  0
  7  8  2  0
  8  9  1  0
  9 10  1  0
  9 11  2  0
 11 12  1  0
 12 13  2  0
 13 14  1  0
  1 15  1  0
 15 16  2  0
 16 17  1  0
 17 18  2  0
 18 19  1  0
 19 20  1  0
 19 21  2  0
  6  1  1  0
 13  7  1  0
 21 15  1  0
  1 22  1  1
  3 23  1  0
  3 24  1  0
  8 25  1  0
 11 26  1  0
 12 27  1  0
 14 28  1  0
 16 29  1  0
 17 30  1  0
 18 31  1  0
 21 32  1  0
M  END
$$$$
