
     RDKit          3D

 14 14  0  0  0  0  0  0  0  0999 V2000
    2.5841   -0.8716   -0.6634 O   0  0  0  0  0  0  0  0  0  0  0  0
    1.9189    0.2704   -0.2247 C   0  0  0  0  0  0  0  0  0  0  0  0
    2.5753    1.3273   -0.0201 O   0  0  0  0  0  0  0  0  0  0  0  0
    0.4572    0.2418   -0.0018 C   0  0  0  0  0  0  0  0  0  0  0  0
   -0.2303    1.3857    0.4410 C   0  0  0  0  0  0  0  0  0  0  0  0
   -1.5749    1.3435    0.6414 N   0  0  0  0  0  0  0  0  0  0  0  0
   -2.2954    0.2119    0.4251 C   0  0  0  0  0  0  0  0  0  0  0  0
   -1.6578   -0.9486   -0.0145 C   0  0  0  0  0  0  0  0  0  0  0  0
   -0.2783   -0.9329   -0.2283 C   0  0  0  0  0  0  0  0  0  0  0  0
    3.5850   -0.8631   -0.8193 H   0  0  0  0  0  0  0  0  0  0  0  0
    0.2979    2.3117    0.6277 H   0  0  0  0  0  0  0  0  0  0  0  0
   -3.3639    0.2134    0.5947 H   0  0  0  0  0  0  0  0  0  0  0  0
   -2.2276   -1.8523   -0.1882 H   0  0  0  0  0  0  0  0  0  0  0  0
    0.2100   -1.8371   -0.5695 H   0  0  0  0  0  0  0  0  0  0  0  0
  1  2  1  0
  2  3  2  0
  2  4  1  0
  4  5  2  0
  5  6  1  0
  6  7  2  0
  7  8  1  0
  8  9  2  0
  9  4  1  0
  1 10  1  0
  5 11  1  0
  7 12  1  0
  8 13  1  0
  9 14  1  0
M  END
$$$$
