
     RDKit          3D

 52 54  0  0  0  0  0  0  0  0999 V2000
    5.8428   -1.8276   -0.8702 C   0  0  0  0  0  0  0  0  0  0  0  0
    4.9772   -0.8502   -0.0808 C   0  0  0  0  0  0  0  0  0  0  0  0
    3.8870   -1.5887    0.7070 C   0  0  0  0  0  0  0  0  0  0  0  0
    3.0575   -0.6355    1.5770 C   0  0  0  0  0  0  0  0  0  0  0  0
    2.2973    0.3113    0.7552 N   0  0  0  0  0  0  0  0  0  0  0  0
    1.1720    0.1014    0.0117 C   0  0  0  0  0  0  0  0  0  0  0  0
    0.4489   -1.2136   -0.0919 C   0  0  0  0  0  0  0  0  0  0  0  0
   -1.0431   -1.0116    0.0362 C   0  0  0  0  0  0  0  0  0  0  0  0
   -1.8253   -0.9608   -1.1207 C   0  0  0  0  0  0  0  0  0  0  0  0
   -3.2126   -0.7454   -1.0558 C   0  0  0  0  0  0  0  0  0  0  0  0
   -3.9820   -0.7008   -2.2299 O   0  0  0  0  0  0  0  0  0  0  0  0
   -3.4748   -0.8566   -3.5518 C   0  0  0  0  0  0  0  0  0  0  0  0
   -3.8346   -0.5690    0.2089 C   0  0  0  0  0  0  0  0  0  0  0  0
   -5.2201   -0.3588    0.3464 O   0  0  0  0  0  0  0  0  0  0  0  0
   -6.1935   -0.3020   -0.6907 C   0  0  0  0  0  0  0  0  0  0  0  0
   -3.0374   -0.6020    1.3858 C   0  0  0  0  0  0  0  0  0  0  0  0
   -3.5558   -0.4259    2.6854 O   0  0  0  0  0  0  0  0  0  0  0  0
   -4.9113   -0.1834    3.0457 C   0  0  0  0  0  0  0  0  0  0  0  0
   -1.6526   -0.8175    1.2880 C   0  0  0  0  0  0  0  0  0  0  0  0
   -0.6881   -0.8285    2.7682 Cl  0  0  0  0  0  0  0  0  0  0  0  0
    0.7857    1.1972   -0.7021 N   0  0  0  0  0  0  0  0  0  0  0  0
    1.7093    2.1146   -0.3650 C   0  0  0  0  0  0  0  0  0  0  0  0
    1.8454    3.4293   -0.7953 C   0  0  0  0  0  0  0  0  0  0  0  0
    0.9212    4.0213   -1.7082 N   0  0  0  0  0  0  0  0  0  0  0  0
    2.9060    4.1456   -0.3160 N   0  0  0  0  0  0  0  0  0  0  0  0
    3.8081    3.5897    0.5555 C   0  0  0  0  0  0  0  0  0  0  0  0
    3.6655    2.2942    0.9687 N   0  0  0  0  0  0  0  0  0  0  0  0
    2.6084    1.5889    0.4971 C   0  0  0  0  0  0  0  0  0  0  0  0
    5.2200   -2.3974   -1.5924 H   0  0  0  0  0  0  0  0  0  0  0  0
    6.3496   -2.5373   -0.1822 H   0  0  0  0  0  0  0  0  0  0  0  0
    6.6171   -1.2663   -1.4344 H   0  0  0  0  0  0  0  0  0  0  0  0
    5.6257   -0.2788    0.6185 H   0  0  0  0  0  0  0  0  0  0  0  0
    4.5109   -0.1365   -0.7935 H   0  0  0  0  0  0  0  0  0  0  0  0
    3.2194   -2.1308    0.0033 H   0  0  0  0  0  0  0  0  0  0  0  0
    4.3631   -2.3412    1.3729 H   0  0  0  0  0  0  0  0  0  0  0  0
    2.3606   -1.2237    2.2097 H   0  0  0  0  0  0  0  0  0  0  0  0
    3.7283   -0.0857    2.2728 H   0  0  0  0  0  0  0  0  0  0  0  0
    0.7912   -1.9287    0.6822 H   0  0  0  0  0  0  0  0  0  0  0  0
    0.7017   -1.6747   -1.0707 H   0  0  0  0  0  0  0  0  0  0  0  0
   -1.3394   -1.0878   -2.0786 H   0  0  0  0  0  0  0  0  0  0  0  0
   -2.7365   -0.0577   -3.7748 H   0  0  0  0  0  0  0  0  0  0  0  0
   -3.0072   -1.8572   -3.6667 H   0  0  0  0  0  0  0  0  0  0  0  0
   -4.3139   -0.7737   -4.2725 H   0  0  0  0  0  0  0  0  0  0  0  0
   -5.9808    0.5473   -1.3732 H   0  0  0  0  0  0  0  0  0  0  0  0
   -6.2252   -1.2645   -1.2431 H   0  0  0  0  0  0  0  0  0  0  0  0
   -7.1906   -0.1344   -0.2346 H   0  0  0  0  0  0  0  0  0  0  0  0
   -4.9755   -0.0850    4.1486 H   0  0  0  0  0  0  0  0  0  0  0  0
   -5.5506   -1.0377    2.7390 H   0  0  0  0  0  0  0  0  0  0  0  0
   -5.2663    0.7668    2.5941 H   0  0  0  0  0  0  0  0  0  0  0  0
    0.1089    3.4794   -2.0783 H   0  0  0  0  0  0  0  0  0  0  0  0
    1.0492    5.0107   -2.0162 H   0  0  0  0  0  0  0  0  0  0  0  0
    4.6394    4.1795    0.9162 H   0  0  0  0  0  0  0  0  0  0  0  0
  1  2  1  0
  2  3  1  0
  3  4  1  0
  4  5  1  0
  5  6  1  0
  6  7  1  0
  7  8  1  0
  8  9  2  0
  9 10  1  0
 10 11  1  0
 11 12  1  0
 10 13  2  0
 13 14  1  0
 14 15  1  0
 13 16  1  0
 16 17  1  0
 17 18  1  0
 16 19  2  0
 19 20  1  0
  6 21  2  0
 21 22  1  0
 22 23  2  0
 23 24  1  0
 23 25  1  0
 25 26  2  0
 26 27  1  0
 27 28  2  0
 28  5  1  0
 19  8  1  0
 28 22  1  0
  1 29  1  0
  1 30  1  0
  1 31  1  0
  2 32  1  0
  2 33  1  0
  3 34  1  0
  3 35  1  0
  4 36  1  0
  4 37  1  0
  7 38  1  0
  7 39  1  0
  9 40  1  0
 12 41  1  0
 12 42  1  0
 12 43  1  0
 15 44  1  0
 15 45  1  0
 15 46  1  0
 18 47  1  0
 18 48  1  0
 18 49  1  0
 24 50  1  0
 24 51  1  0
 26 52  1  0
M  END
$$$$
