
     RDKit          3D

 39 42  0  0  0  0  0  0  0  0999 V2000
   -3.4204    0.1672   -2.0890 N   0  0  0  0  0  0  0  0  0  0  0  0
   -2.4830    1.2222   -2.1410 C   0  0  0  0  0  0  0  0  0  0  0  0
   -2.5993    2.1953   -2.9311 O   0  0  0  0  0  0  0  0  0  0  0  0
   -1.3569    1.0679   -1.1727 C   0  0  0  0  0  0  0  0  0  0  0  0
   -1.6669   -0.2789   -0.4488 C   0  0  1  0  0  0  0  0  0  0  0  0
   -2.9569   -0.7220   -1.0941 C   0  0  0  0  0  0  0  0  0  0  0  0
   -3.5745   -1.7772   -0.7886 O   0  0  0  0  0  0  0  0  0  0  0  0
   -0.5763   -1.2894   -0.7545 C   0  0  0  0  0  0  0  0  0  0  0  0
   -0.5856   -1.8935   -1.8637 O   0  0  0  0  0  0  0  0  0  0  0  0
    0.5136   -1.4972    0.1605 N   0  0  0  0  0  0  0  0  0  0  0  0
    1.8058   -2.0037   -0.3287 C   0  0  0  0  0  0  0  0  0  0  0  0
    2.7007   -0.8526   -0.7127 C   0  0  0  0  0  0  0  0  0  0  0  0
    2.6277   -0.2787   -1.9964 C   0  0  0  0  0  0  0  0  0  0  0  0
    1.7892   -0.7830   -2.9358 F   0  0  0  0  0  0  0  0  0  0  0  0
    3.4287    0.8208   -2.3216 C   0  0  0  0  0  0  0  0  0  0  0  0
    4.3034    1.3593   -1.3735 C   0  0  0  0  0  0  0  0  0  0  0  0
    5.3927    2.8623   -1.8224 Br  0  0  0  0  0  0  0  0  0  0  0  0
    4.3788    0.7971   -0.0963 C   0  0  0  0  0  0  0  0  0  0  0  0
    3.5802   -0.3012    0.2347 C   0  0  0  0  0  0  0  0  0  0  0  0
    0.3614   -1.1050    1.5351 C   0  0  0  0  0  0  0  0  0  0  0  0
    1.2826   -1.3434    2.3641 O   0  0  0  0  0  0  0  0  0  0  0  0
   -0.8744   -0.4343    1.9877 C   0  0  0  0  0  0  0  0  0  0  0  0
   -1.8632   -0.0537    1.0511 C   0  0  0  0  0  0  0  0  0  0  0  0
   -3.0060    0.6357    1.5143 C   0  0  0  0  0  0  0  0  0  0  0  0
   -3.1838    0.8965    2.8736 C   0  0  0  0  0  0  0  0  0  0  0  0
   -4.2925    1.5510    3.2988 F   0  0  0  0  0  0  0  0  0  0  0  0
   -2.2183    0.4936    3.7931 C   0  0  0  0  0  0  0  0  0  0  0  0
   -1.0680   -0.1624    3.3556 C   0  0  0  0  0  0  0  0  0  0  0  0
   -4.2856    0.0679   -2.6650 H   0  0  0  0  0  0  0  0  0  0  0  0
   -1.3474    1.9343   -0.4757 H   0  0  0  0  0  0  0  0  0  0  0  0
   -0.3918    1.0459   -1.7258 H   0  0  0  0  0  0  0  0  0  0  0  0
    2.2948   -2.6291    0.4499 H   0  0  0  0  0  0  0  0  0  0  0  0
    1.6627   -2.6827   -1.1965 H   0  0  0  0  0  0  0  0  0  0  0  0
    3.3684    1.2555   -3.3112 H   0  0  0  0  0  0  0  0  0  0  0  0
    5.0536    1.2119    0.6414 H   0  0  0  0  0  0  0  0  0  0  0  0
    3.6499   -0.7210    1.2300 H   0  0  0  0  0  0  0  0  0  0  0  0
   -3.7604    0.9808    0.8186 H   0  0  0  0  0  0  0  0  0  0  0  0
   -2.3555    0.6981    4.8472 H   0  0  0  0  0  0  0  0  0  0  0  0
   -0.3274   -0.4543    4.0897 H   0  0  0  0  0  0  0  0  0  0  0  0
  1  2  1  0
  2  3  2  0
  2  4  1  0
  5  4  1  6
  5  6  1  0
  6  7  2  0
  5  8  1  0
  8  9  2  0
  8 10  1  0
 10 11  1  0
 11 12  1  0
 12 13  2  0
 13 14  1  0
 13 15  1  0
 15 16  2  0
 16 17  1  0
 16 18  1  0
 18 19  2  0
 10 20  1  0
 20 21  2  0
 20 22  1  0
 22 23  2  0
 23 24  1  0
 24 25  2  0
 25 26  1  0
 25 27  1  0
 27 28  2  0
  6  1  1  0
 19 12  1  0
 28 22  1  0
 23  5  1  0
  1 29  1  0
  4 30  1  0
  4 31  1  0
 11 32  1  0
 11 33  1  0
 15 34  1  0
 18 35  1  0
 19 36  1  0
 24 37  1  0
 27 38  1  0
 28 39  1  0
M  END
$$$$
