
     RDKit          3D

 77 78  0  0  0  0  0  0  0  0999 V2000
   -2.4248   -0.2708    3.0523 O   0  0  0  0  0  0  0  0  0  0  0  0
   -2.7099   -0.1498    1.6803 C   0  0  2  0  0  0  0  0  0  0  0  0
   -1.7553    0.8846    1.0438 C   0  0  0  0  0  0  0  0  0  0  0  0
   -1.7721    0.9481   -0.4987 C   0  0  0  0  0  0  0  0  0  0  0  0
   -1.1100   -0.2702   -1.1999 C   0  0  1  0  0  0  0  0  0  0  0  0
   -2.0803   -1.4554   -1.4268 C   0  0  2  0  0  0  0  0  0  0  0  0
   -1.6572   -2.5641   -0.6740 O   0  0  0  0  0  0  0  0  0  0  0  0
   -2.0325   -1.7927   -2.9209 C   0  0  0  0  0  0  0  0  0  0  0  0
   -0.7690   -1.1405   -3.4662 C   0  0  2  0  0  0  0  0  0  0  0  0
    0.3279   -2.0228   -3.3968 O   0  0  0  0  0  0  0  0  0  0  0  0
   -0.5785    0.1111   -2.5991 C   0  0  2  0  0  0  0  0  0  0  0  0
    0.8708    0.6441   -2.5538 C   0  0  0  0  0  0  0  0  0  0  0  0
    1.3509    1.1231   -3.9048 C   0  0  0  0  0  0  0  0  0  0  0  0
    2.5554    1.6918   -4.0988 C   0  0  0  0  0  0  0  0  0  0  0  0
    3.5431    1.9556   -2.9907 C   0  0  0  0  0  0  0  0  0  0  0  0
    3.2233    3.2756   -2.2651 C   0  0  0  0  0  0  0  0  0  0  0  0
    3.7835    3.3045   -0.8371 C   0  0  0  0  0  0  0  0  0  0  0  0
    2.9799    2.4272    0.0736 C   0  0  0  0  0  0  0  0  0  0  0  0
    1.8847    2.8463    0.5386 O   0  0  0  0  0  0  0  0  0  0  0  0
    3.4235    1.1285    0.3462 O   0  0  0  0  0  0  0  0  0  0  0  0
    2.6903    0.1952    1.1365 C   0  0  0  0  0  0  0  0  0  0  0  0
    2.7444    0.5473    2.6306 C   0  0  0  0  0  0  0  0  0  0  0  0
    4.1119    0.2682    3.2765 C   0  0  0  0  0  0  0  0  0  0  0  0
    5.1930    1.2614    2.8451 C   0  0  0  0  0  0  0  0  0  0  0  0
    6.3507    1.0827    3.6543 O   0  0  0  0  0  0  0  0  0  0  0  0
    7.4877    1.8475    3.4836 N   0  0  0  0  0  4  0  0  0  0  0  0
    8.5757    1.6307    4.2945 O   0  0  0  0  0  1  0  0  0  0  0  0
    7.5422    2.7321    2.6038 O   0  0  0  0  0  0  0  0  0  0  0  0
   -4.1999    0.2116    1.4703 C   0  0  0  0  0  0  0  0  0  0  0  0
   -5.1581   -0.8217    2.0838 C   0  0  0  0  0  0  0  0  0  0  0  0
   -5.0743   -2.1545    1.3832 C   0  0  0  0  0  0  0  0  0  0  0  0
   -5.6636   -2.3269    0.1193 C   0  0  0  0  0  0  0  0  0  0  0  0
   -5.5672   -3.5552   -0.5417 C   0  0  0  0  0  0  0  0  0  0  0  0
   -4.8835   -4.6189    0.0533 C   0  0  0  0  0  0  0  0  0  0  0  0
   -4.2888   -4.4537    1.3072 C   0  0  0  0  0  0  0  0  0  0  0  0
   -4.3792   -3.2257    1.9699 C   0  0  0  0  0  0  0  0  0  0  0  0
   -2.5997    0.6109    3.4750 H   0  0  0  0  0  0  0  0  0  0  0  0
   -2.5098   -1.1360    1.2253 H   0  0  0  0  0  0  0  0  0  0  0  0
   -0.7179    0.6730    1.3818 H   0  0  0  0  0  0  0  0  0  0  0  0
   -2.0133    1.8930    1.4359 H   0  0  0  0  0  0  0  0  0  0  0  0
   -2.7949    1.1239   -0.8897 H   0  0  0  0  0  0  0  0  0  0  0  0
   -1.1975    1.8617   -0.7663 H   0  0  0  0  0  0  0  0  0  0  0  0
   -0.2524   -0.6193   -0.5811 H   0  0  0  0  0  0  0  0  0  0  0  0
   -3.1253   -1.1868   -1.1479 H   0  0  0  0  0  0  0  0  0  0  0  0
   -2.4051   -3.2160   -0.6807 H   0  0  0  0  0  0  0  0  0  0  0  0
   -2.9184   -1.3451   -3.4243 H   0  0  0  0  0  0  0  0  0  0  0  0
   -2.0427   -2.8888   -3.1109 H   0  0  0  0  0  0  0  0  0  0  0  0
   -0.9213   -0.8557   -4.5301 H   0  0  0  0  0  0  0  0  0  0  0  0
    0.4359   -2.3121   -2.4533 H   0  0  0  0  0  0  0  0  0  0  0  0
   -1.2305    0.9087   -3.0271 H   0  0  0  0  0  0  0  0  0  0  0  0
    1.5568   -0.1418   -2.1722 H   0  0  0  0  0  0  0  0  0  0  0  0
    0.9056    1.4933   -1.8423 H   0  0  0  0  0  0  0  0  0  0  0  0
    0.7048    1.0008   -4.7694 H   0  0  0  0  0  0  0  0  0  0  0  0
    2.8336    1.9831   -5.1075 H   0  0  0  0  0  0  0  0  0  0  0  0
    4.5612    2.0302   -3.4303 H   0  0  0  0  0  0  0  0  0  0  0  0
    3.5653    1.0927   -2.2938 H   0  0  0  0  0  0  0  0  0  0  0  0
    3.6718    4.1133   -2.8426 H   0  0  0  0  0  0  0  0  0  0  0  0
    2.1276    3.4642   -2.2303 H   0  0  0  0  0  0  0  0  0  0  0  0
    4.8472    2.9815   -0.8341 H   0  0  0  0  0  0  0  0  0  0  0  0
    3.7472    4.3472   -0.4538 H   0  0  0  0  0  0  0  0  0  0  0  0
    3.1101   -0.8202    0.9753 H   0  0  0  0  0  0  0  0  0  0  0  0
    1.6340    0.1722    0.7953 H   0  0  0  0  0  0  0  0  0  0  0  0
    2.4519    1.6063    2.7938 H   0  0  0  0  0  0  0  0  0  0  0  0
    1.9883   -0.0792    3.1520 H   0  0  0  0  0  0  0  0  0  0  0  0
    4.4411   -0.7681    3.0445 H   0  0  0  0  0  0  0  0  0  0  0  0
    3.9909    0.3411    4.3795 H   0  0  0  0  0  0  0  0  0  0  0  0
    5.4687    1.0868    1.7843 H   0  0  0  0  0  0  0  0  0  0  0  0
    4.8220    2.3027    2.9633 H   0  0  0  0  0  0  0  0  0  0  0  0
   -4.4312    0.3026    0.3896 H   0  0  0  0  0  0  0  0  0  0  0  0
   -4.4053    1.2012    1.9336 H   0  0  0  0  0  0  0  0  0  0  0  0
   -4.9533   -0.9333    3.1708 H   0  0  0  0  0  0  0  0  0  0  0  0
   -6.1977   -0.4371    1.9975 H   0  0  0  0  0  0  0  0  0  0  0  0
   -6.1932   -1.5094   -0.3539 H   0  0  0  0  0  0  0  0  0  0  0  0
   -6.0212   -3.6819   -1.5159 H   0  0  0  0  0  0  0  0  0  0  0  0
   -4.8090   -5.5688   -0.4600 H   0  0  0  0  0  0  0  0  0  0  0  0
   -3.7531   -5.2759    1.7636 H   0  0  0  0  0  0  0  0  0  0  0  0
   -3.9053   -3.1091    2.9365 H   0  0  0  0  0  0  0  0  0  0  0  0
  1  2  1  0
  2  3  1  0
  3  4  1  0
  4  5  1  0
  5  6  1  0
  6  7  1  0
  6  8  1  0
  8  9  1  0
  9 10  1  0
  9 11  1  0
 11 12  1  0
 12 13  1  0
 13 14  2  0
 14 15  1  0
 15 16  1  0
 16 17  1  0
 17 18  1  0
 18 19  2  0
 18 20  1  0
 20 21  1  0
 21 22  1  0
 22 23  1  0
 23 24  1  0
 24 25  1  0
 25 26  1  0
 26 27  1  0
 26 28  2  0
  2 29  1  0
 29 30  1  0
 30 31  1  0
 31 32  2  0
 32 33  1  0
 33 34  2  0
 34 35  1  0
 35 36  2  0
 11  5  1  0
 36 31  1  0
  1 37  1  0
  2 38  1  6
  3 39  1  0
  3 40  1  0
  4 41  1  0
  4 42  1  0
  5 43  1  1
  6 44  1  1
  7 45  1  0
  8 46  1  0
  8 47  1  0
  9 48  1  6
 10 49  1  0
 11 50  1  6
 12 51  1  0
 12 52  1  0
 13 53  1  0
 14 54  1  0
 15 55  1  0
 15 56  1  0
 16 57  1  0
 16 58  1  0
 17 59  1  0
 17 60  1  0
 21 61  1  0
 21 62  1  0
 22 63  1  0
 22 64  1  0
 23 65  1  0
 23 66  1  0
 24 67  1  0
 24 68  1  0
 29 69  1  0
 29 70  1  0
 30 71  1  0
 30 72  1  0
 32 73  1  0
 33 74  1  0
 34 75  1  0
 35 76  1  0
 36 77  1  0
M  CHG  2  26   1  27  -1
M  END
$$$$
