
     RDKit          3D

 14 13  0  0  0  0  0  0  0  0999 V2000
   -2.0227   -0.2289   -0.8575 O   0  0  0  0  0  0  0  0  0  0  0  0
   -1.1628   -0.7545    0.1179 C   0  0  0  0  0  0  0  0  0  0  0  0
   -0.0634    0.2547    0.4865 C   0  0  1  0  0  0  0  0  0  0  0  0
    0.7388   -0.2899    1.5019 O   0  0  0  0  0  0  0  0  0  0  0  0
    0.8002    0.6529   -0.7264 C   0  0  0  0  0  0  0  0  0  0  0  0
    1.7648   -0.7474   -1.3901 S   0  0  0  0  0  0  0  0  0  0  0  0
   -2.6004    0.4357   -0.3990 H   0  0  0  0  0  0  0  0  0  0  0  0
   -1.7431   -1.0238    1.0299 H   0  0  0  0  0  0  0  0  0  0  0  0
   -0.7104   -1.6912   -0.2700 H   0  0  0  0  0  0  0  0  0  0  0  0
   -0.5663    1.1729    0.8708 H   0  0  0  0  0  0  0  0  0  0  0  0
    1.2472    0.4636    1.9016 H   0  0  0  0  0  0  0  0  0  0  0  0
    1.5049    1.4585   -0.4288 H   0  0  0  0  0  0  0  0  0  0  0  0
    0.1559    1.0575   -1.5352 H   0  0  0  0  0  0  0  0  0  0  0  0
    2.6573   -0.7602   -0.3015 H   0  0  0  0  0  0  0  0  0  0  0  0
  1  2  1  0
  2  3  1  0
  3  4  1  0
  3  5  1  0
  5  6  1  0
  1  7  1  0
  2  8  1  0
  2  9  1  0
  3 10  1  1
  4 11  1  0
  5 12  1  0
  5 13  1  0
  6 14  1  0
M  END
$$$$
