
     RDKit          3D

 78 82  0  0  0  0  0  0  0  0999 V2000
   11.3006    0.7434   -3.4965 N   0  0  0  0  0  0  0  0  0  0  0  0
   10.5974    1.7810   -2.8067 C   0  0  0  0  0  0  0  0  0  0  0  0
   11.0081    2.9680   -2.9110 O   0  0  0  0  0  0  0  0  0  0  0  0
    9.4197    1.4916   -1.9521 C   0  0  0  0  0  0  0  0  0  0  0  0
    8.6566    0.4064   -2.1679 C   0  0  0  0  0  0  0  0  0  0  0  0
    7.5177    0.1221   -1.3360 N   0  0  0  0  0  0  0  0  0  0  0  0
    7.2803    0.9128   -0.1587 C   0  0  0  0  0  0  0  0  0  0  0  0
    8.0020    2.0058    0.0815 C   0  0  0  0  0  0  0  0  0  0  0  0
    9.0294    2.5057   -0.8963 C   0  0  0  0  0  0  0  0  0  0  0  0
    6.7179   -1.0827   -1.5978 C   0  0  2  0  0  0  0  0  0  0  0  0
    5.3602   -0.8377   -1.2904 O   0  0  0  0  0  0  0  0  0  0  0  0
    4.9149   -1.8923   -0.4699 C   0  0  2  0  0  0  0  0  0  0  0  0
    3.8651   -1.3745    0.5175 C   0  0  0  0  0  0  0  0  0  0  0  0
    2.7680   -0.8650   -0.2037 O   0  0  0  0  0  0  0  0  0  0  0  0
    1.5850   -0.3355    0.9055 P   0  0  0  0  0  5  0  0  0  0  0  0
    2.2622    0.8054    1.9636 O   0  0  0  0  0  0  0  0  0  0  0  0
    1.0611   -1.5226    1.6858 O   0  0  0  0  0  0  0  0  0  0  0  0
    0.3121    0.3599    0.0151 O   0  0  0  0  0  0  0  0  0  0  0  0
   -0.7022    1.1817    1.1098 P   0  0  0  0  0  5  0  0  0  0  0  0
   -1.0243    0.2374    2.4804 O   0  0  0  0  0  0  0  0  0  0  0  0
   -0.0402    2.4731    1.5357 O   0  0  0  0  0  0  0  0  0  0  0  0
   -2.1678    1.5617    0.3218 O   0  0  0  0  0  0  0  0  0  0  0  0
   -2.8377    0.3724   -0.0452 C   0  0  0  0  0  0  0  0  0  0  0  0
   -4.0136    0.1162    0.9055 C   0  0  1  0  0  0  0  0  0  0  0  0
   -4.9213    1.1921    0.8504 O   0  0  0  0  0  0  0  0  0  0  0  0
   -6.2250    0.6615    0.9755 C   0  0  2  0  0  0  0  0  0  0  0  0
   -6.1554   -0.8697    1.0602 C   0  0  2  0  0  0  0  0  0  0  0  0
   -6.2581   -1.2810    2.4125 O   0  0  0  0  0  0  0  0  0  0  0  0
   -7.8342   -1.8579    2.7199 P   0  0  0  0  0  5  0  0  0  0  0  0
   -8.1092   -3.2712    1.8295 O   0  0  0  0  0  0  0  0  0  0  0  0
   -8.9788   -0.6880    2.2911 O   0  0  0  0  0  0  0  0  0  0  0  0
   -7.9674   -2.1652    4.1939 O   0  0  0  0  0  0  0  0  0  0  0  0
   -4.7643   -1.1568    0.5484 C   0  0  2  0  0  0  0  0  0  0  0  0
   -4.1842   -2.2746    1.1704 O   0  0  0  0  0  0  0  0  0  0  0  0
   -7.0299    1.0819   -0.1749 N   0  0  0  0  0  0  0  0  0  0  0  0
   -6.7235    0.9718   -1.4948 C   0  0  0  0  0  0  0  0  0  0  0  0
   -7.7048    1.4340   -2.3181 N   0  0  0  0  0  0  0  0  0  0  0  0
   -8.6511    1.8418   -1.4517 C   0  0  0  0  0  0  0  0  0  0  0  0
   -8.2506    1.6319   -0.1770 C   0  0  0  0  0  0  0  0  0  0  0  0
   -9.0144    1.9616    0.8926 N   0  0  0  0  0  0  0  0  0  0  0  0
  -10.2392    2.5217    0.6572 C   0  0  0  0  0  0  0  0  0  0  0  0
  -10.6690    2.7416   -0.6272 N   0  0  0  0  0  0  0  0  0  0  0  0
   -9.8941    2.4115   -1.7036 C   0  0  0  0  0  0  0  0  0  0  0  0
  -10.3574    2.6495   -3.0328 N   0  0  0  0  0  0  0  0  0  0  0  0
    6.1274   -2.4807    0.2405 C   0  0  1  0  0  0  0  0  0  0  0  0
    5.9488   -3.8439    0.5300 O   0  0  0  0  0  0  0  0  0  0  0  0
    7.2330   -2.2629   -0.7625 C   0  0  1  0  0  0  0  0  0  0  0  0
    7.3990   -3.3983   -1.5748 O   0  0  0  0  0  0  0  0  0  0  0  0
   12.0897    0.9864   -4.1356 H   0  0  0  0  0  0  0  0  0  0  0  0
   11.1111   -0.2659   -3.3122 H   0  0  0  0  0  0  0  0  0  0  0  0
    8.8864   -0.2693   -2.9817 H   0  0  0  0  0  0  0  0  0  0  0  0
    6.5180    0.6201    0.5520 H   0  0  0  0  0  0  0  0  0  0  0  0
    7.7968    2.5919    0.9686 H   0  0  0  0  0  0  0  0  0  0  0  0
    8.6243    3.4095   -1.3988 H   0  0  0  0  0  0  0  0  0  0  0  0
    9.9351    2.8032   -0.3259 H   0  0  0  0  0  0  0  0  0  0  0  0
    6.7728   -1.3296   -2.6824 H   0  0  0  0  0  0  0  0  0  0  0  0
    4.4465   -2.6691   -1.1174 H   0  0  0  0  0  0  0  0  0  0  0  0
    4.3277   -0.5756    1.1398 H   0  0  0  0  0  0  0  0  0  0  0  0
    3.5481   -2.2206    1.1687 H   0  0  0  0  0  0  0  0  0  0  0  0
    2.5837    0.2818    2.7405 H   0  0  0  0  0  0  0  0  0  0  0  0
   -1.5168    0.8395    3.0933 H   0  0  0  0  0  0  0  0  0  0  0  0
   -3.2367    0.5171   -1.0720 H   0  0  0  0  0  0  0  0  0  0  0  0
   -2.1855   -0.5317   -0.0968 H   0  0  0  0  0  0  0  0  0  0  0  0
   -3.6301    0.0383    1.9470 H   0  0  0  0  0  0  0  0  0  0  0  0
   -6.6765    1.0719    1.9060 H   0  0  0  0  0  0  0  0  0  0  0  0
   -6.8893   -1.3645    0.3777 H   0  0  0  0  0  0  0  0  0  0  0  0
   -7.3217   -3.8428    2.0143 H   0  0  0  0  0  0  0  0  0  0  0  0
   -9.8532   -1.1438    2.3822 H   0  0  0  0  0  0  0  0  0  0  0  0
   -4.7906   -1.2991   -0.5582 H   0  0  0  0  0  0  0  0  0  0  0  0
   -4.6430   -3.0718    0.7968 H   0  0  0  0  0  0  0  0  0  0  0  0
   -5.7936    0.5588   -1.8620 H   0  0  0  0  0  0  0  0  0  0  0  0
  -10.8735    2.7939    1.4895 H   0  0  0  0  0  0  0  0  0  0  0  0
  -11.2955    3.0791   -3.1920 H   0  0  0  0  0  0  0  0  0  0  0  0
   -9.7706    2.3999   -3.8597 H   0  0  0  0  0  0  0  0  0  0  0  0
    6.3670   -1.9091    1.1692 H   0  0  0  0  0  0  0  0  0  0  0  0
    5.3835   -3.8882    1.3443 H   0  0  0  0  0  0  0  0  0  0  0  0
    8.1876   -2.0282   -0.2341 H   0  0  0  0  0  0  0  0  0  0  0  0
    8.2493   -3.2674   -2.0705 H   0  0  0  0  0  0  0  0  0  0  0  0
  1  2  1  0
  2  3  2  0
  2  4  1  0
  4  5  2  0
  5  6  1  0
  6  7  1  0
  7  8  2  0
  8  9  1  0
  6 10  1  0
 10 11  1  0
 11 12  1  0
 12 13  1  0
 13 14  1  0
 14 15  1  0
 15 16  1  0
 15 17  2  0
 15 18  1  0
 18 19  1  0
 19 20  1  0
 19 21  2  0
 19 22  1  0
 22 23  1  0
 23 24  1  0
 24 25  1  0
 25 26  1  0
 26 27  1  0
 27 28  1  0
 28 29  1  0
 29 30  1  0
 29 31  1  0
 29 32  2  0
 27 33  1  0
 33 34  1  0
 26 35  1  0
 35 36  1  0
 36 37  2  0
 37 38  1  0
 38 39  2  0
 39 40  1  0
 40 41  2  0
 41 42  1  0
 42 43  2  0
 43 44  1  0
 12 45  1  0
 45 46  1  0
 45 47  1  0
 47 48  1  0
  9  4  1  0
 47 10  1  0
 33 24  1  0
 39 35  1  0
 43 38  1  0
  1 49  1  0
  1 50  1  0
  5 51  1  0
  7 52  1  0
  8 53  1  0
  9 54  1  0
  9 55  1  0
 10 56  1  6
 12 57  1  6
 13 58  1  0
 13 59  1  0
 16 60  1  0
 20 61  1  0
 23 62  1  0
 23 63  1  0
 24 64  1  1
 26 65  1  1
 27 66  1  6
 30 67  1  0
 31 68  1  0
 33 69  1  6
 34 70  1  0
 36 71  1  0
 41 72  1  0
 44 73  1  0
 44 74  1  0
 45 75  1  1
 46 76  1  0
 47 77  1  1
 48 78  1  0
M  END
$$$$
