
     RDKit          3D

 51 54  0  0  0  0  0  0  0  0999 V2000
   -2.2593    0.0759    0.7585 C   0  0  2  0  0  0  0  0  0  0  0  0
   -3.2467   -0.5083    1.7704 C   0  0  0  0  0  0  0  0  0  0  0  0
   -4.6075    0.0306    1.2834 C   0  0  1  0  0  0  0  0  0  0  0  0
   -5.1208    1.6308    2.2586 Br  0  0  0  0  0  0  0  0  0  0  0  0
   -4.3624    0.3684   -0.1584 C   0  0  0  0  0  0  0  0  0  0  0  0
   -5.2216    0.8093   -0.9067 O   0  0  0  0  0  0  0  0  0  0  0  0
   -2.9807    0.0076   -0.5944 C   0  0  2  0  0  0  0  0  0  0  0  0
   -3.0653   -1.4110   -1.2256 C   0  0  0  0  0  0  0  0  0  0  0  0
   -2.2823    0.9980   -1.5476 C   0  0  0  0  0  0  0  0  0  0  0  0
   -0.7800    0.6412   -1.6986 C   0  0  0  0  0  0  0  0  0  0  0  0
   -0.0351    0.4866   -0.3267 C   0  0  1  0  0  0  0  0  0  0  0  0
   -0.8146   -0.4496    0.6662 C   0  0  1  0  0  0  0  0  0  0  0  0
   -0.1388   -0.4601    2.0481 C   0  0  0  0  0  0  0  0  0  0  0  0
    1.3271   -0.8860    1.9403 C   0  0  0  0  0  0  0  0  0  0  0  0
    2.0987    0.0477    0.9888 C   0  0  1  0  0  0  0  0  0  0  0  0
    3.6100   -0.2861    0.9910 C   0  0  0  0  0  0  0  0  0  0  0  0
    4.4165    0.4772   -0.0887 C   0  0  1  0  0  0  0  0  0  0  0  0
    4.8382   -0.4102   -1.0929 O   0  0  0  0  0  0  0  0  0  0  0  0
    3.6150    1.6334   -0.7077 C   0  0  0  0  0  0  0  0  0  0  0  0
    2.2580    1.1860   -1.2924 C   0  0  0  0  0  0  0  0  0  0  0  0
    1.4889    0.0945   -0.4557 C   0  0  2  0  0  0  0  0  0  0  0  0
    1.6383   -1.2847   -1.1689 C   0  0  0  0  0  0  0  0  0  0  0  0
   -2.1724    1.1516    1.0568 H   0  0  0  0  0  0  0  0  0  0  0  0
   -3.2292   -1.6190    1.7340 H   0  0  0  0  0  0  0  0  0  0  0  0
   -3.0151   -0.1785    2.8062 H   0  0  0  0  0  0  0  0  0  0  0  0
   -5.3987   -0.7434    1.3781 H   0  0  0  0  0  0  0  0  0  0  0  0
   -3.5469   -2.1364   -0.5365 H   0  0  0  0  0  0  0  0  0  0  0  0
   -2.0779   -1.8252   -1.5032 H   0  0  0  0  0  0  0  0  0  0  0  0
   -3.6771   -1.3728   -2.1525 H   0  0  0  0  0  0  0  0  0  0  0  0
   -2.3733    2.0358   -1.1566 H   0  0  0  0  0  0  0  0  0  0  0  0
   -2.7705    0.9764   -2.5463 H   0  0  0  0  0  0  0  0  0  0  0  0
   -0.3080    1.4441   -2.3009 H   0  0  0  0  0  0  0  0  0  0  0  0
   -0.6949   -0.2836   -2.2990 H   0  0  0  0  0  0  0  0  0  0  0  0
   -0.0515    1.5047    0.1285 H   0  0  0  0  0  0  0  0  0  0  0  0
   -0.8319   -1.4945    0.3011 H   0  0  0  0  0  0  0  0  0  0  0  0
   -0.1980    0.5493    2.5128 H   0  0  0  0  0  0  0  0  0  0  0  0
   -0.6642   -1.1756    2.7169 H   0  0  0  0  0  0  0  0  0  0  0  0
    1.7808   -0.8354    2.9544 H   0  0  0  0  0  0  0  0  0  0  0  0
    1.3931   -1.9421    1.6028 H   0  0  0  0  0  0  0  0  0  0  0  0
    2.0042    1.0695    1.4253 H   0  0  0  0  0  0  0  0  0  0  0  0
    3.7614   -1.3819    0.8744 H   0  0  0  0  0  0  0  0  0  0  0  0
    4.0187   -0.0251    1.9926 H   0  0  0  0  0  0  0  0  0  0  0  0
    5.3179    0.9115    0.4051 H   0  0  0  0  0  0  0  0  0  0  0  0
    5.5708    0.0403   -1.5894 H   0  0  0  0  0  0  0  0  0  0  0  0
    3.4405    2.4048    0.0746 H   0  0  0  0  0  0  0  0  0  0  0  0
    4.2162    2.1217   -1.5054 H   0  0  0  0  0  0  0  0  0  0  0  0
    2.4218    0.8386   -2.3362 H   0  0  0  0  0  0  0  0  0  0  0  0
    1.6534    2.1137   -1.3808 H   0  0  0  0  0  0  0  0  0  0  0  0
    1.0641   -2.0873   -0.6701 H   0  0  0  0  0  0  0  0  0  0  0  0
    2.6907   -1.6187   -1.2044 H   0  0  0  0  0  0  0  0  0  0  0  0
    1.3007   -1.2337   -2.2234 H   0  0  0  0  0  0  0  0  0  0  0  0
  1  2  1  0
  2  3  1  0
  3  4  1  0
  3  5  1  0
  5  6  2  0
  5  7  1  0
  7  8  1  6
  7  9  1  0
  9 10  1  0
 10 11  1  0
 11 12  1  0
 12 13  1  0
 13 14  1  0
 14 15  1  0
 15 16  1  0
 16 17  1  0
 17 18  1  0
 17 19  1  0
 19 20  1  0
 20 21  1  0
 21 22  1  6
  7  1  1  0
 21 11  1  0
 12  1  1  0
 21 15  1  0
  1 23  1  1
  2 24  1  0
  2 25  1  0
  3 26  1  6
  8 27  1  0
  8 28  1  0
  8 29  1  0
  9 30  1  0
  9 31  1  0
 10 32  1  0
 10 33  1  0
 11 34  1  1
 12 35  1  6
 13 36  1  0
 13 37  1  0
 14 38  1  0
 14 39  1  0
 15 40  1  1
 16 41  1  0
 16 42  1  0
 17 43  1  1
 18 44  1  0
 19 45  1  0
 19 46  1  0
 20 47  1  0
 20 48  1  0
 22 49  1  0
 22 50  1  0
 22 51  1  0
M  END
$$$$
