
     RDKit          3D

 26 25  0  0  0  0  0  0  0  0999 V2000
    2.6945   -1.2194    0.4390 N   0  0  0  0  0  0  0  0  0  0  0  0
    1.8514   -0.2433   -0.2565 C   0  0  1  0  0  0  0  0  0  0  0  0
    0.8236    0.4223    0.6891 C   0  0  0  0  0  0  0  0  0  0  0  0
   -0.1511   -0.5583    1.3707 C   0  0  0  0  0  0  0  0  0  0  0  0
   -1.0307   -1.3528    0.3910 C   0  0  0  0  0  0  0  0  0  0  0  0
   -1.7585   -0.4675   -0.5204 N   0  0  0  0  0  0  0  0  0  0  0  0
   -2.8487    0.3912   -0.1375 C   0  0  0  0  0  0  0  0  0  0  0  0
   -3.3334    1.3601   -1.0671 N   0  0  0  0  0  0  0  0  0  0  0  0
   -3.4185    0.2948    1.0240 N   0  0  0  0  0  0  0  0  0  0  0  0
    2.7251    0.8099   -0.8739 C   0  0  0  0  0  0  0  0  0  0  0  0
    3.6874    1.4579   -0.1042 O   0  0  0  0  0  0  0  0  0  0  0  0
    2.5697    1.1303   -2.0829 O   0  0  0  0  0  0  0  0  0  0  0  0
    3.0030   -0.8312    1.3605 H   0  0  0  0  0  0  0  0  0  0  0  0
    2.1356   -2.0828    0.6261 H   0  0  0  0  0  0  0  0  0  0  0  0
    1.3116   -0.7595   -1.0806 H   0  0  0  0  0  0  0  0  0  0  0  0
    0.2369    1.1757    0.1188 H   0  0  0  0  0  0  0  0  0  0  0  0
    1.3657    0.9771    1.4866 H   0  0  0  0  0  0  0  0  0  0  0  0
    0.4134   -1.2688    2.0106 H   0  0  0  0  0  0  0  0  0  0  0  0
   -0.8042    0.0253    2.0531 H   0  0  0  0  0  0  0  0  0  0  0  0
   -0.3938   -2.0452   -0.1989 H   0  0  0  0  0  0  0  0  0  0  0  0
   -1.7434   -1.9945    0.9502 H   0  0  0  0  0  0  0  0  0  0  0  0
   -1.4493   -0.4486   -1.5184 H   0  0  0  0  0  0  0  0  0  0  0  0
   -2.8938    1.4583   -2.0090 H   0  0  0  0  0  0  0  0  0  0  0  0
   -4.1297    1.9869   -0.8145 H   0  0  0  0  0  0  0  0  0  0  0  0
   -3.1378   -0.3962    1.7522 H   0  0  0  0  0  0  0  0  0  0  0  0
    4.2751    2.1785   -0.5059 H   0  0  0  0  0  0  0  0  0  0  0  0
  1  2  1  0
  2  3  1  0
  3  4  1  0
  4  5  1  0
  5  6  1  0
  6  7  1  0
  7  8  1  0
  7  9  2  3
  2 10  1  0
 10 11  1  0
 10 12  2  0
  1 13  1  0
  1 14  1  0
  2 15  1  6
  3 16  1  0
  3 17  1  0
  4 18  1  0
  4 19  1  0
  5 20  1  0
  5 21  1  0
  6 22  1  0
  8 23  1  0
  8 24  1  0
  9 25  1  0
 11 26  1  0
M  END
$$$$
