
     RDKit          3D

 30 31  0  0  0  0  0  0  0  0999 V2000
    3.4854   -2.4010   -0.7074 N   0  0  0  0  0  0  0  0  0  0  0  0
    2.7273   -1.2562   -0.2991 C   0  0  0  0  0  0  0  0  0  0  0  0
    1.3659   -1.1842   -0.6101 C   0  0  0  0  0  0  0  0  0  0  0  0
    0.6352   -0.0595   -0.2068 C   0  0  0  0  0  0  0  0  0  0  0  0
    1.2744    0.9338    0.4647 N   0  0  0  0  0  0  0  0  0  0  0  0
    2.5975    0.8600    0.7640 C   0  0  0  0  0  0  0  0  0  0  0  0
    3.2128    1.9370    1.4753 N   0  0  0  0  0  0  0  0  0  0  0  0
    3.3223   -0.2343    0.3854 N   0  0  0  0  0  4  0  0  0  0  0  0
    4.6634   -0.3053    0.6920 O   0  0  0  0  0  1  0  0  0  0  0  0
   -0.7706    0.0696   -0.5020 N   0  0  0  0  0  0  0  0  0  0  0  0
   -1.6350   -1.1156   -0.6114 C   0  0  0  0  0  0  0  0  0  0  0  0
   -3.0194   -0.8278   -0.0211 C   0  0  0  0  0  0  0  0  0  0  0  0
   -3.6135    0.4546   -0.6101 C   0  0  0  0  0  0  0  0  0  0  0  0
   -2.6691    1.6385   -0.3845 C   0  0  0  0  0  0  0  0  0  0  0  0
   -1.2912    1.3555   -0.9881 C   0  0  0  0  0  0  0  0  0  0  0  0
    3.0310   -3.1820   -1.2314 H   0  0  0  0  0  0  0  0  0  0  0  0
    4.5034   -2.4835   -0.4926 H   0  0  0  0  0  0  0  0  0  0  0  0
    0.8968   -1.9813   -1.1724 H   0  0  0  0  0  0  0  0  0  0  0  0
    4.2261    1.9191    1.7245 H   0  0  0  0  0  0  0  0  0  0  0  0
    2.6465    2.7675    1.7581 H   0  0  0  0  0  0  0  0  0  0  0  0
   -1.1995   -1.9732   -0.0541 H   0  0  0  0  0  0  0  0  0  0  0  0
   -1.7325   -1.4029   -1.6809 H   0  0  0  0  0  0  0  0  0  0  0  0
   -3.6971   -1.6820   -0.2353 H   0  0  0  0  0  0  0  0  0  0  0  0
   -2.9348   -0.7235    1.0831 H   0  0  0  0  0  0  0  0  0  0  0  0
   -4.5896    0.6651   -0.1224 H   0  0  0  0  0  0  0  0  0  0  0  0
   -3.7945    0.3195   -1.6993 H   0  0  0  0  0  0  0  0  0  0  0  0
   -3.0987    2.5494   -0.8542 H   0  0  0  0  0  0  0  0  0  0  0  0
   -2.5631    1.8289    0.7062 H   0  0  0  0  0  0  0  0  0  0  0  0
   -0.6104    2.1929   -0.7233 H   0  0  0  0  0  0  0  0  0  0  0  0
   -1.3693    1.3207   -2.0966 H   0  0  0  0  0  0  0  0  0  0  0  0
  1  2  1  0
  2  3  2  0
  3  4  1  0
  4  5  2  0
  5  6  1  0
  6  7  1  0
  6  8  2  0
  8  9  1  0
  4 10  1  0
 10 11  1  0
 11 12  1  0
 12 13  1  0
 13 14  1  0
 14 15  1  0
  8  2  1  0
 15 10  1  0
  1 16  1  0
  1 17  1  0
  3 18  1  0
  7 19  1  0
  7 20  1  0
 11 21  1  0
 11 22  1  0
 12 23  1  0
 12 24  1  0
 13 25  1  0
 13 26  1  0
 14 27  1  0
 14 28  1  0
 15 29  1  0
 15 30  1  0
M  CHG  2   8   1   9  -1
M  END
$$$$
