
     RDKit          3D

 31 34  0  0  0  0  0  0  0  0999 V2000
   -4.8782    0.4053   -1.0418 C   0  0  0  0  0  0  0  0  0  0  0  0
   -3.5169    1.0830   -1.0367 C   0  0  0  0  0  0  0  0  0  0  0  0
   -3.6122   -0.4330   -1.0044 C   0  0  0  0  0  0  0  0  0  0  0  0
   -3.3156   -1.0009    0.3075 N   0  0  0  0  0  0  0  0  0  0  0  0
   -1.9729   -1.1209    0.7880 C   0  0  0  0  0  0  0  0  0  0  0  0
   -0.9313   -0.6437    0.0536 N   0  0  0  0  0  0  0  0  0  0  0  0
    0.3513   -0.7361    0.4962 C   0  0  0  0  0  0  0  0  0  0  0  0
    0.6076   -1.3657    1.7208 C   0  0  0  0  0  0  0  0  0  0  0  0
   -0.4704   -1.8476    2.4622 C   0  0  0  0  0  0  0  0  0  0  0  0
   -1.7353   -1.7155    1.9869 N   0  0  0  0  0  0  0  0  0  0  0  0
    1.4404   -0.2189   -0.3529 C   0  0  0  0  0  0  0  0  0  0  0  0
    2.6417    0.3704    0.0032 C   0  0  0  0  0  0  0  0  0  0  0  0
    3.1699    0.7134    1.2471 C   0  0  0  0  0  0  0  0  0  0  0  0
    4.4217    1.3445    1.2621 C   0  0  0  0  0  0  0  0  0  0  0  0
    5.0795    1.6219    0.0499 C   0  0  0  0  0  0  0  0  0  0  0  0
    4.4889    1.2867   -1.1318 N   0  0  0  0  0  0  0  0  0  0  0  0
    3.3031    0.6813   -1.1201 N   0  0  0  0  0  0  0  0  0  0  0  0
    2.6086    0.3489   -2.1929 N   0  0  0  0  0  0  0  0  0  0  0  0
    1.4551   -0.2004   -1.7467 C   0  0  0  0  0  0  0  0  0  0  0  0
   -5.4291    0.4926   -0.0809 H   0  0  0  0  0  0  0  0  0  0  0  0
   -5.3873    0.4213   -2.0284 H   0  0  0  0  0  0  0  0  0  0  0  0
   -3.2159    1.5021   -2.0199 H   0  0  0  0  0  0  0  0  0  0  0  0
   -3.2567    1.5694   -0.0719 H   0  0  0  0  0  0  0  0  0  0  0  0
   -3.2993   -0.9796   -1.9192 H   0  0  0  0  0  0  0  0  0  0  0  0
   -4.0926   -1.4209    0.8660 H   0  0  0  0  0  0  0  0  0  0  0  0
    1.6156   -1.5176    2.0815 H   0  0  0  0  0  0  0  0  0  0  0  0
   -0.3007   -2.3380    3.4114 H   0  0  0  0  0  0  0  0  0  0  0  0
    2.6381    0.5316    2.1700 H   0  0  0  0  0  0  0  0  0  0  0  0
    4.8756    1.6274    2.2029 H   0  0  0  0  0  0  0  0  0  0  0  0
    6.0435    2.1126    0.0522 H   0  0  0  0  0  0  0  0  0  0  0  0
    0.6738   -0.5737   -2.3955 H   0  0  0  0  0  0  0  0  0  0  0  0
  1  2  1  0
  2  3  1  0
  3  4  1  0
  4  5  1  0
  5  6  2  0
  6  7  1  0
  7  8  2  0
  8  9  1  0
  9 10  2  0
  7 11  1  0
 11 12  2  0
 12 13  1  0
 13 14  2  0
 14 15  1  0
 15 16  2  0
 16 17  1  0
 17 18  1  0
 18 19  2  0
  3  1  1  0
 10  5  1  0
 19 11  1  0
 17 12  1  0
  1 20  1  0
  1 21  1  0
  2 22  1  0
  2 23  1  0
  3 24  1  0
  4 25  1  0
  8 26  1  0
  9 27  1  0
 13 28  1  0
 14 29  1  0
 15 30  1  0
 19 31  1  0
M  END
$$$$
