
     RDKit          3D

 30 31  0  0  0  0  0  0  0  0999 V2000
   -3.8441   -1.3254   -0.5704 C   0  0  0  0  0  0  0  0  0  0  0  0
   -3.2382    0.0338   -0.1972 C   0  0  0  0  0  0  0  0  0  0  0  0
   -3.4982    0.3880    1.2425 C   0  0  0  0  0  0  0  0  0  0  0  0
   -3.7747    1.7082    1.5840 O   0  0  0  0  0  0  0  0  0  0  0  0
   -3.4250   -0.4887    2.1463 O   0  0  0  0  0  0  0  0  0  0  0  0
   -1.7535    0.0759   -0.4988 C   0  0  0  0  0  0  0  0  0  0  0  0
   -1.2578    0.9598   -1.4721 C   0  0  0  0  0  0  0  0  0  0  0  0
    0.1090    1.0044   -1.7609 C   0  0  0  0  0  0  0  0  0  0  0  0
    1.0102    0.1749   -1.0748 C   0  0  0  0  0  0  0  0  0  0  0  0
    0.5143   -0.7249   -0.1168 C   0  0  0  0  0  0  0  0  0  0  0  0
   -0.8521   -0.7707    0.1723 C   0  0  0  0  0  0  0  0  0  0  0  0
    2.4531    0.2205   -1.4044 C   0  0  0  0  0  0  0  0  0  0  0  0
    2.8008    0.4116   -2.6010 O   0  0  0  0  0  0  0  0  0  0  0  0
    3.5035    0.0599   -0.3798 C   0  0  0  0  0  0  0  0  0  0  0  0
    3.3693    0.2506    0.9930 C   0  0  0  0  0  0  0  0  0  0  0  0
    4.5661    0.0710    1.6972 C   0  0  0  0  0  0  0  0  0  0  0  0
    5.6482   -0.2481    0.8881 C   0  0  0  0  0  0  0  0  0  0  0  0
    5.1145   -0.3025   -0.7048 S   0  0  0  0  0  0  0  0  0  0  0  0
   -3.3936   -2.1469    0.0262 H   0  0  0  0  0  0  0  0  0  0  0  0
   -3.6720   -1.5332   -1.6482 H   0  0  0  0  0  0  0  0  0  0  0  0
   -4.9403   -1.3149   -0.3890 H   0  0  0  0  0  0  0  0  0  0  0  0
   -3.7633    0.7936   -0.8180 H   0  0  0  0  0  0  0  0  0  0  0  0
   -3.9353    1.9728    2.5485 H   0  0  0  0  0  0  0  0  0  0  0  0
   -1.9285    1.6172   -2.0111 H   0  0  0  0  0  0  0  0  0  0  0  0
    0.4650    1.6972   -2.5137 H   0  0  0  0  0  0  0  0  0  0  0  0
    1.1801   -1.4073    0.3963 H   0  0  0  0  0  0  0  0  0  0  0  0
   -1.2058   -1.4722    0.9166 H   0  0  0  0  0  0  0  0  0  0  0  0
    2.4440    0.5333    1.4768 H   0  0  0  0  0  0  0  0  0  0  0  0
    4.6434    0.1826    2.7705 H   0  0  0  0  0  0  0  0  0  0  0  0
    6.6611   -0.4203    1.2260 H   0  0  0  0  0  0  0  0  0  0  0  0
  1  2  1  0
  2  3  1  0
  3  4  1  0
  3  5  2  0
  2  6  1  0
  6  7  2  0
  7  8  1  0
  8  9  2  0
  9 10  1  0
 10 11  2  0
  9 12  1  0
 12 13  2  0
 12 14  1  0
 14 15  2  0
 15 16  1  0
 16 17  2  0
 17 18  1  0
 11  6  1  0
 18 14  1  0
  1 19  1  0
  1 20  1  0
  1 21  1  0
  2 22  1  0
  4 23  1  0
  7 24  1  0
  8 25  1  0
 10 26  1  0
 11 27  1  0
 15 28  1  0
 16 29  1  0
 17 30  1  0
M  END
$$$$
