
     RDKit          3D

 44 48  0  0  0  0  0  0  0  0999 V2000
   -3.4147    0.4021    2.8986 C   0  0  0  0  0  0  0  0  0  0  0  0
   -3.6926    1.3363    1.7118 C   0  0  0  0  0  0  0  0  0  0  0  0
   -3.9150    0.6021    0.3428 C   0  0  1  0  0  0  0  0  0  0  0  0
   -4.5886   -0.6174    0.5565 O   0  0  0  0  0  0  0  0  0  0  0  0
   -4.8177    1.4327   -0.5599 C   0  0  0  0  0  0  0  0  0  0  0  0
   -5.6365    2.2675   -0.0899 O   0  0  0  0  0  0  0  0  0  0  0  0
   -4.7983    1.2198   -1.9404 O   0  0  0  0  0  0  0  0  0  0  0  0
   -4.0263    0.1745   -2.5216 C   0  0  0  0  0  0  0  0  0  0  0  0
   -2.6845    0.0926   -1.8417 C   0  0  0  0  0  0  0  0  0  0  0  0
   -2.6064    0.3451   -0.4415 C   0  0  0  0  0  0  0  0  0  0  0  0
   -1.3386    0.2826    0.1835 C   0  0  0  0  0  0  0  0  0  0  0  0
   -0.2281   -0.0401   -0.5890 C   0  0  0  0  0  0  0  0  0  0  0  0
   -0.3306   -0.2999   -1.9088 N   0  0  0  0  0  0  0  0  0  0  0  0
    0.9860   -0.6176   -2.4787 C   0  0  0  0  0  0  0  0  0  0  0  0
    1.8846   -0.5050   -1.2820 C   0  0  0  0  0  0  0  0  0  0  0  0
    1.1476   -0.1642   -0.1798 C   0  0  0  0  0  0  0  0  0  0  0  0
    1.7044    0.0410    1.0368 N   0  0  0  0  0  0  0  0  0  0  0  0
    3.0527   -0.1142    1.1902 C   0  0  0  0  0  0  0  0  0  0  0  0
    3.6316    0.1233    2.4390 C   0  0  0  0  0  0  0  0  0  0  0  0
    5.0093   -0.0025    2.6090 C   0  0  0  0  0  0  0  0  0  0  0  0
    5.8204   -0.3844    1.5393 C   0  0  0  0  0  0  0  0  0  0  0  0
    5.2688   -0.6544    0.2749 C   0  0  0  0  0  0  0  0  0  0  0  0
    3.8734   -0.4982    0.0811 C   0  0  0  0  0  0  0  0  0  0  0  0
    3.2619   -0.6725   -1.1844 C   0  0  0  0  0  0  0  0  0  0  0  0
    6.1327   -1.1066   -0.7805 N   0  0  0  0  0  4  0  0  0  0  0  0
    5.8051   -2.2294   -1.5049 O   0  0  0  0  0  1  0  0  0  0  0  0
    7.2822   -0.6325   -0.8917 O   0  0  0  0  0  0  0  0  0  0  0  0
   -1.5198   -0.2488   -2.5635 C   0  0  0  0  0  0  0  0  0  0  0  0
   -1.5733   -0.5031   -3.7978 O   0  0  0  0  0  0  0  0  0  0  0  0
   -2.6266   -0.3433    2.6764 H   0  0  0  0  0  0  0  0  0  0  0  0
   -3.0946    1.0032    3.7756 H   0  0  0  0  0  0  0  0  0  0  0  0
   -4.3414   -0.1447    3.1751 H   0  0  0  0  0  0  0  0  0  0  0  0
   -2.8749    2.0834    1.6180 H   0  0  0  0  0  0  0  0  0  0  0  0
   -4.5944    1.9133    2.0066 H   0  0  0  0  0  0  0  0  0  0  0  0
   -3.9279   -1.2939    0.8600 H   0  0  0  0  0  0  0  0  0  0  0  0
   -4.5579   -0.7921   -2.3918 H   0  0  0  0  0  0  0  0  0  0  0  0
   -3.9223    0.3777   -3.6080 H   0  0  0  0  0  0  0  0  0  0  0  0
   -1.1919    0.4865    1.2310 H   0  0  0  0  0  0  0  0  0  0  0  0
    1.2670    0.1281   -3.2527 H   0  0  0  0  0  0  0  0  0  0  0  0
    0.9977   -1.6522   -2.8832 H   0  0  0  0  0  0  0  0  0  0  0  0
    3.0145    0.4174    3.2793 H   0  0  0  0  0  0  0  0  0  0  0  0
    5.4515    0.1895    3.5782 H   0  0  0  0  0  0  0  0  0  0  0  0
    6.8848   -0.4958    1.7037 H   0  0  0  0  0  0  0  0  0  0  0  0
    3.8263   -0.9058   -2.0756 H   0  0  0  0  0  0  0  0  0  0  0  0
  1  2  1  0
  2  3  1  0
  3  4  1  1
  3  5  1  0
  5  6  2  0
  5  7  1  0
  7  8  1  0
  8  9  1  0
  9 10  2  0
 10 11  1  0
 11 12  2  0
 12 13  1  0
 13 14  1  0
 14 15  1  0
 15 16  2  0
 16 17  1  0
 17 18  2  0
 18 19  1  0
 19 20  2  0
 20 21  1  0
 21 22  2  0
 22 23  1  0
 23 24  2  0
 22 25  1  0
 25 26  1  0
 25 27  2  0
 13 28  1  0
 28 29  2  0
 10  3  1  0
 16 12  1  0
 23 18  1  0
 28  9  1  0
 24 15  1  0
  1 30  1  0
  1 31  1  0
  1 32  1  0
  2 33  1  0
  2 34  1  0
  4 35  1  0
  8 36  1  0
  8 37  1  0
 11 38  1  0
 14 39  1  0
 14 40  1  0
 19 41  1  0
 20 42  1  0
 21 43  1  0
 24 44  1  0
M  CHG  2  25   1  26  -1
M  END
$$$$
