
     RDKit          3D

 43 46  0  0  0  0  0  0  0  0999 V2000
   -1.7051    1.0166    1.2511 C   0  0  1  0  0  0  0  0  0  0  0  0
   -2.0081    1.3173    2.6593 C   0  0  0  0  0  0  0  0  0  0  0  0
   -2.2462    1.5537    3.7670 N   0  0  0  0  0  0  0  0  0  0  0  0
   -2.3986    1.9794    0.3307 C   0  0  0  0  0  0  0  0  0  0  0  0
   -2.9832    1.5883   -0.8294 N   0  0  0  0  0  0  0  0  0  0  0  0
   -3.4830    2.6513   -1.5098 C   0  0  0  0  0  0  0  0  0  0  0  0
   -3.2889    3.8839   -0.9071 C   0  0  0  0  0  0  0  0  0  0  0  0
   -2.4610    3.6658    0.5347 S   0  0  0  0  0  0  0  0  0  0  0  0
   -3.7371    5.0691   -1.4843 C   0  0  0  0  0  0  0  0  0  0  0  0
   -4.4067    4.9919   -2.7161 C   0  0  0  0  0  0  0  0  0  0  0  0
   -4.6100    3.7441   -3.3390 C   0  0  0  0  0  0  0  0  0  0  0  0
   -4.1456    2.5624   -2.7353 C   0  0  0  0  0  0  0  0  0  0  0  0
   -0.2192    1.0179    0.9974 C   0  0  0  0  0  0  0  0  0  0  0  0
    0.3409   -0.0377    0.3479 N   0  0  0  0  0  0  0  0  0  0  0  0
    1.6728   -0.0784    0.0720 C   0  0  0  0  0  0  0  0  0  0  0  0
    2.2440   -1.2046   -0.6050 N   0  0  0  0  0  0  0  0  0  0  0  0
    1.4643   -2.3817   -0.9886 C   0  0  0  0  0  0  0  0  0  0  0  0
    1.0956   -3.2310    0.2343 C   0  0  0  0  0  0  0  0  0  0  0  0
    2.3233   -3.7094    0.9642 C   0  0  0  0  0  0  0  0  0  0  0  0
    3.0200   -4.8430    0.5215 C   0  0  0  0  0  0  0  0  0  0  0  0
    4.1743   -5.2574    1.1884 C   0  0  0  0  0  0  0  0  0  0  0  0
    4.6271   -4.5283    2.2896 C   0  0  0  0  0  0  0  0  0  0  0  0
    3.9485   -3.4246    2.7014 N   0  0  0  0  0  0  0  0  0  0  0  0
    2.8212   -3.0013    2.0693 C   0  0  0  0  0  0  0  0  0  0  0  0
    2.4686    0.9606    0.4393 N   0  0  0  0  0  0  0  0  0  0  0  0
    1.9562    2.0416    1.0810 C   0  0  0  0  0  0  0  0  0  0  0  0
    0.5949    2.0975    1.3739 C   0  0  0  0  0  0  0  0  0  0  0  0
   -2.1017   -0.0024    1.0490 H   0  0  0  0  0  0  0  0  0  0  0  0
   -3.5740    6.0226   -0.9991 H   0  0  0  0  0  0  0  0  0  0  0  0
   -4.7674    5.8956   -3.1899 H   0  0  0  0  0  0  0  0  0  0  0  0
   -5.1263    3.6951   -4.2889 H   0  0  0  0  0  0  0  0  0  0  0  0
   -4.2995    1.6036   -3.2135 H   0  0  0  0  0  0  0  0  0  0  0  0
    3.2553   -1.1714   -0.8665 H   0  0  0  0  0  0  0  0  0  0  0  0
    0.5403   -2.0630   -1.5177 H   0  0  0  0  0  0  0  0  0  0  0  0
    2.0574   -3.0004   -1.6971 H   0  0  0  0  0  0  0  0  0  0  0  0
    0.5016   -4.1077   -0.1040 H   0  0  0  0  0  0  0  0  0  0  0  0
    0.4420   -2.6500    0.9197 H   0  0  0  0  0  0  0  0  0  0  0  0
    2.6705   -5.4016   -0.3380 H   0  0  0  0  0  0  0  0  0  0  0  0
    4.7144   -6.1334    0.8534 H   0  0  0  0  0  0  0  0  0  0  0  0
    5.5207   -4.8377    2.8150 H   0  0  0  0  0  0  0  0  0  0  0  0
    2.3157   -2.1128    2.4256 H   0  0  0  0  0  0  0  0  0  0  0  0
    2.6066    2.8588    1.3627 H   0  0  0  0  0  0  0  0  0  0  0  0
    0.1857    2.9608    1.8829 H   0  0  0  0  0  0  0  0  0  0  0  0
  1  2  1  0
  2  3  3  0
  1  4  1  0
  4  5  2  0
  5  6  1  0
  6  7  2  0
  7  8  1  0
  7  9  1  0
  9 10  2  0
 10 11  1  0
 11 12  2  0
  1 13  1  0
 13 14  2  0
 14 15  1  0
 15 16  1  0
 16 17  1  0
 17 18  1  0
 18 19  1  0
 19 20  2  0
 20 21  1  0
 21 22  2  0
 22 23  1  0
 23 24  2  0
 15 25  2  0
 25 26  1  0
 26 27  2  0
  8  4  1  0
 27 13  1  0
 12  6  1  0
 24 19  1  0
  1 28  1  6
  9 29  1  0
 10 30  1  0
 11 31  1  0
 12 32  1  0
 16 33  1  0
 17 34  1  0
 17 35  1  0
 18 36  1  0
 18 37  1  0
 20 38  1  0
 21 39  1  0
 22 40  1  0
 24 41  1  0
 26 42  1  0
 27 43  1  0
M  END
$$$$
