
     RDKit          3D

 55 59  0  0  0  0  0  0  0  0999 V2000
    6.2039    3.9859   -0.2900 O   0  0  0  0  0  0  0  0  0  0  0  0
    5.5168    2.9639    0.3615 C   0  0  0  0  0  0  0  0  0  0  0  0
    4.4339    3.2642    1.1212 N   0  0  0  0  0  0  0  0  0  0  0  0
    3.7437    2.3226    1.7625 N   0  0  0  0  0  0  0  0  0  0  0  0
    4.0812    1.0064    1.7025 C   0  0  0  0  0  0  0  0  0  0  0  0
    3.2062    0.0223    2.4411 C   0  0  0  0  0  0  0  0  0  0  0  0
    2.2822   -0.7057    1.4967 C   0  0  0  0  0  0  0  0  0  0  0  0
    1.3545    0.0109    0.7213 C   0  0  0  0  0  0  0  0  0  0  0  0
    0.4782   -0.6587   -0.1483 C   0  0  0  0  0  0  0  0  0  0  0  0
   -0.4818    0.1189   -0.9615 C   0  0  0  0  0  0  0  0  0  0  0  0
   -0.0907    1.1853   -1.5101 O   0  0  0  0  0  0  0  0  0  0  0  0
   -1.8473   -0.3081   -1.1351 N   0  0  0  0  0  0  0  0  0  0  0  0
   -2.5432    0.0259   -2.3857 C   0  0  0  0  0  0  0  0  0  0  0  0
   -3.9553   -0.5667   -2.4205 C   0  0  0  0  0  0  0  0  0  0  0  0
   -4.6587   -0.2679   -1.1631 N   0  0  0  0  0  0  0  0  0  0  0  0
   -3.9623   -0.4647    0.1206 C   0  0  0  0  0  0  0  0  0  0  0  0
   -2.5531   -1.0369   -0.0715 C   0  0  0  0  0  0  0  0  0  0  0  0
   -6.0313    0.1859   -1.1796 C   0  0  0  0  0  0  0  0  0  0  0  0
   -6.6153    0.3956   -2.2780 O   0  0  0  0  0  0  0  0  0  0  0  0
   -6.7710    0.4721    0.1010 C   0  0  0  0  0  0  0  0  0  0  0  0
   -7.2926   -0.7679    0.8124 C   0  0  0  0  0  0  0  0  0  0  0  0
   -8.2609    0.1522    0.0924 C   0  0  0  0  0  0  0  0  0  0  0  0
    0.5498   -2.0594   -0.2536 C   0  0  0  0  0  0  0  0  0  0  0  0
   -0.2300   -2.7307   -1.1384 F   0  0  0  0  0  0  0  0  0  0  0  0
    1.4603   -2.7754    0.5277 C   0  0  0  0  0  0  0  0  0  0  0  0
    2.3156   -2.1059    1.4051 C   0  0  0  0  0  0  0  0  0  0  0  0
    5.1997    0.6219    0.9249 C   0  0  0  0  0  0  0  0  0  0  0  0
    5.6162   -0.7206    0.8043 C   0  0  0  0  0  0  0  0  0  0  0  0
    6.7247   -1.0514    0.0216 C   0  0  0  0  0  0  0  0  0  0  0  0
    7.4347   -0.0560   -0.6484 C   0  0  0  0  0  0  0  0  0  0  0  0
    7.0419    1.2787   -0.5403 C   0  0  0  0  0  0  0  0  0  0  0  0
    5.9272    1.6286    0.2428 C   0  0  0  0  0  0  0  0  0  0  0  0
    5.9063    4.9504   -0.2040 H   0  0  0  0  0  0  0  0  0  0  0  0
    3.8362   -0.6815    3.0259 H   0  0  0  0  0  0  0  0  0  0  0  0
    2.5851    0.5647    3.1869 H   0  0  0  0  0  0  0  0  0  0  0  0
    1.3075    1.0903    0.8048 H   0  0  0  0  0  0  0  0  0  0  0  0
   -2.6152    1.1313   -2.4806 H   0  0  0  0  0  0  0  0  0  0  0  0
   -1.9645   -0.3662   -3.2500 H   0  0  0  0  0  0  0  0  0  0  0  0
   -3.8947   -1.6689   -2.5504 H   0  0  0  0  0  0  0  0  0  0  0  0
   -4.4880   -0.1499   -3.3015 H   0  0  0  0  0  0  0  0  0  0  0  0
   -3.8852    0.5125    0.6448 H   0  0  0  0  0  0  0  0  0  0  0  0
   -4.5379   -1.1661    0.7607 H   0  0  0  0  0  0  0  0  0  0  0  0
   -2.0067   -0.9649    0.8941 H   0  0  0  0  0  0  0  0  0  0  0  0
   -2.6278   -2.1101   -0.3491 H   0  0  0  0  0  0  0  0  0  0  0  0
   -6.4536    1.3093    0.7580 H   0  0  0  0  0  0  0  0  0  0  0  0
   -7.1215   -1.7363    0.2938 H   0  0  0  0  0  0  0  0  0  0  0  0
   -7.3251   -0.6823    1.9190 H   0  0  0  0  0  0  0  0  0  0  0  0
   -8.8726    0.7774    0.7765 H   0  0  0  0  0  0  0  0  0  0  0  0
   -8.6760   -0.2884   -0.8393 H   0  0  0  0  0  0  0  0  0  0  0  0
    1.5094   -3.8537    0.4477 H   0  0  0  0  0  0  0  0  0  0  0  0
    3.0086   -2.6813    2.0059 H   0  0  0  0  0  0  0  0  0  0  0  0
    5.0999   -1.5228    1.3090 H   0  0  0  0  0  0  0  0  0  0  0  0
    7.0352   -2.0848   -0.0644 H   0  0  0  0  0  0  0  0  0  0  0  0
    8.2931   -0.3193   -1.2529 H   0  0  0  0  0  0  0  0  0  0  0  0
    7.6108    2.0327   -1.0703 H   0  0  0  0  0  0  0  0  0  0  0  0
  1  2  1  0
  2  3  2  0
  3  4  1  0
  4  5  2  0
  5  6  1  0
  6  7  1  0
  7  8  2  0
  8  9  1  0
  9 10  1  0
 10 11  2  0
 10 12  1  0
 12 13  1  0
 13 14  1  0
 14 15  1  0
 15 16  1  0
 16 17  1  0
 15 18  1  0
 18 19  2  0
 18 20  1  0
 20 21  1  0
 21 22  1  0
  9 23  2  0
 23 24  1  0
 23 25  1  0
 25 26  2  0
  5 27  1  0
 27 28  2  0
 28 29  1  0
 29 30  2  0
 30 31  1  0
 31 32  2  0
 32  2  1  0
 26  7  1  0
 32 27  1  0
 17 12  1  0
 22 20  1  0
  1 33  1  0
  6 34  1  0
  6 35  1  0
  8 36  1  0
 13 37  1  0
 13 38  1  0
 14 39  1  0
 14 40  1  0
 16 41  1  0
 16 42  1  0
 17 43  1  0
 17 44  1  0
 20 45  1  0
 21 46  1  0
 21 47  1  0
 22 48  1  0
 22 49  1  0
 25 50  1  0
 26 51  1  0
 28 52  1  0
 29 53  1  0
 30 54  1  0
 31 55  1  0
M  END
$$$$
