
     RDKit          3D

 75 78  0  0  0  0  0  0  0  0999 V2000
   -5.6301    5.1201   -2.8709 C   0  0  0  0  0  0  0  0  0  0  0  0
   -4.7240    4.0575   -2.5928 O   0  0  0  0  0  0  0  0  0  0  0  0
   -4.1935    3.7796   -1.3239 C   0  0  0  0  0  0  0  0  0  0  0  0
   -3.3101    2.6991   -1.1919 C   0  0  0  0  0  0  0  0  0  0  0  0
   -2.9877    1.9619   -2.2860 F   0  0  0  0  0  0  0  0  0  0  0  0
   -2.7566    2.3802    0.0603 C   0  0  0  0  0  0  0  0  0  0  0  0
   -3.0832    3.1569    1.1806 C   0  0  0  0  0  0  0  0  0  0  0  0
   -3.9620    4.2342    1.0550 C   0  0  0  0  0  0  0  0  0  0  0  0
   -4.5178    4.5469   -0.1881 C   0  0  0  0  0  0  0  0  0  0  0  0
   -1.8209    1.2387    0.2005 C   0  0  0  0  0  0  0  0  0  0  0  0
   -2.2577   -0.1018    0.1277 C   0  0  0  0  0  0  0  0  0  0  0  0
   -3.7343   -0.4028   -0.0752 C   0  0  0  0  0  0  0  0  0  0  0  0
   -1.3294   -1.1213    0.1843 N   0  0  0  0  0  0  0  0  0  0  0  0
   -1.7488   -2.5375    0.0250 C   0  0  0  0  0  0  0  0  0  0  0  0
   -2.4382   -3.1086    1.2630 C   0  0  0  0  0  0  0  0  0  0  0  0
   -3.4936   -4.0659    1.1460 C   0  0  0  0  0  0  0  0  0  0  0  0
   -4.1281   -4.5311    2.3162 C   0  0  0  0  0  0  0  0  0  0  0  0
   -3.6997   -4.1205    3.5753 C   0  0  0  0  0  0  0  0  0  0  0  0
   -2.6280   -3.2449    3.6953 C   0  0  0  0  0  0  0  0  0  0  0  0
   -1.9925   -2.7478    2.5580 C   0  0  0  0  0  0  0  0  0  0  0  0
   -0.9376   -1.9176    2.7408 F   0  0  0  0  0  0  0  0  0  0  0  0
   -3.9752   -4.5799   -0.2007 C   0  0  0  0  0  0  0  0  0  0  0  0
   -4.8410   -5.6517   -0.0619 F   0  0  0  0  0  0  0  0  0  0  0  0
   -2.9008   -5.0093   -0.9595 F   0  0  0  0  0  0  0  0  0  0  0  0
   -4.6430   -3.5722   -0.8721 F   0  0  0  0  0  0  0  0  0  0  0  0
    0.0073   -0.8291    0.3442 C   0  0  0  0  0  0  0  0  0  0  0  0
    0.8510   -1.7681    0.3960 O   0  0  0  0  0  0  0  0  0  0  0  0
    0.4383    0.4673    0.4643 N   0  0  0  0  0  0  0  0  0  0  0  0
    1.8797    0.7656    0.6301 C   0  0  0  0  0  0  0  0  0  0  0  0
    2.5435    1.0593   -0.7356 C   0  0  2  0  0  0  0  0  0  0  0  0
    2.5923   -0.1661   -1.5752 N   0  0  0  0  0  0  0  0  0  0  0  0
    3.8806   -0.8820   -1.6697 C   0  0  0  0  0  0  0  0  0  0  0  0
    4.1601   -1.7326   -0.4261 C   0  0  0  0  0  0  0  0  0  0  0  0
    5.4326   -2.5655   -0.6057 C   0  0  0  0  0  0  0  0  0  0  0  0
    5.6995   -3.3823    0.6187 C   0  0  0  0  0  0  0  0  0  0  0  0
    5.1259   -4.6432    0.7488 O   0  0  0  0  0  0  0  0  0  0  0  0
    6.4083   -2.9132    1.5490 O   0  0  0  0  0  0  0  0  0  0  0  0
    3.8672    1.8148   -0.6423 C   0  0  0  0  0  0  0  0  0  0  0  0
    4.2732    2.6069   -1.7329 C   0  0  0  0  0  0  0  0  0  0  0  0
    5.4953    3.2845   -1.7048 C   0  0  0  0  0  0  0  0  0  0  0  0
    6.3306    3.1761   -0.5917 C   0  0  0  0  0  0  0  0  0  0  0  0
    5.9457    2.3888    0.4951 C   0  0  0  0  0  0  0  0  0  0  0  0
    4.7243    1.7090    0.4733 C   0  0  0  0  0  0  0  0  0  0  0  0
   -0.4587    1.4960    0.3827 C   0  0  0  0  0  0  0  0  0  0  0  0
   -0.0603    2.6935    0.4564 O   0  0  0  0  0  0  0  0  0  0  0  0
   -5.1594    6.0964   -2.6291 H   0  0  0  0  0  0  0  0  0  0  0  0
   -5.8846    5.1062   -3.9504 H   0  0  0  0  0  0  0  0  0  0  0  0
   -6.5636    4.9894   -2.2838 H   0  0  0  0  0  0  0  0  0  0  0  0
   -2.6606    2.9236    2.1503 H   0  0  0  0  0  0  0  0  0  0  0  0
   -4.2136    4.8288    1.9238 H   0  0  0  0  0  0  0  0  0  0  0  0
   -5.1957    5.3866   -0.2557 H   0  0  0  0  0  0  0  0  0  0  0  0
   -4.0729   -1.2139    0.5952 H   0  0  0  0  0  0  0  0  0  0  0  0
   -3.9129   -0.6941   -1.1310 H   0  0  0  0  0  0  0  0  0  0  0  0
   -4.3896    0.4575    0.1656 H   0  0  0  0  0  0  0  0  0  0  0  0
   -0.8943   -3.2021   -0.2210 H   0  0  0  0  0  0  0  0  0  0  0  0
   -2.3983   -2.5954   -0.8692 H   0  0  0  0  0  0  0  0  0  0  0  0
   -4.9574   -5.2245    2.2657 H   0  0  0  0  0  0  0  0  0  0  0  0
   -4.1926   -4.4953    4.4632 H   0  0  0  0  0  0  0  0  0  0  0  0
   -2.2857   -2.9486    4.6788 H   0  0  0  0  0  0  0  0  0  0  0  0
    2.0022    1.6449    1.3011 H   0  0  0  0  0  0  0  0  0  0  0  0
    2.3942   -0.0647    1.1536 H   0  0  0  0  0  0  0  0  0  0  0  0
    1.8448    1.7718   -1.2328 H   0  0  0  0  0  0  0  0  0  0  0  0
    2.3198    0.1025   -2.5505 H   0  0  0  0  0  0  0  0  0  0  0  0
    4.7273   -0.1967   -1.8829 H   0  0  0  0  0  0  0  0  0  0  0  0
    3.8249   -1.5728   -2.5408 H   0  0  0  0  0  0  0  0  0  0  0  0
    4.2915   -1.0794    0.4574 H   0  0  0  0  0  0  0  0  0  0  0  0
    3.3004   -2.4130   -0.2464 H   0  0  0  0  0  0  0  0  0  0  0  0
    5.3196   -3.2467   -1.4768 H   0  0  0  0  0  0  0  0  0  0  0  0
    6.2990   -1.8951   -0.7984 H   0  0  0  0  0  0  0  0  0  0  0  0
    5.2826   -5.2018    1.5792 H   0  0  0  0  0  0  0  0  0  0  0  0
    3.6439    2.6929   -2.6102 H   0  0  0  0  0  0  0  0  0  0  0  0
    5.7966    3.8909   -2.5492 H   0  0  0  0  0  0  0  0  0  0  0  0
    7.2774    3.7001   -0.5722 H   0  0  0  0  0  0  0  0  0  0  0  0
    6.5959    2.3033    1.3562 H   0  0  0  0  0  0  0  0  0  0  0  0
    4.4582    1.1072    1.3305 H   0  0  0  0  0  0  0  0  0  0  0  0
  1  2  1  0
  2  3  1  0
  3  4  2  0
  4  5  1  0
  4  6  1  0
  6  7  2  0
  7  8  1  0
  8  9  2  0
  6 10  1  0
 10 11  2  0
 11 12  1  0
 11 13  1  0
 13 14  1  0
 14 15  1  0
 15 16  2  0
 16 17  1  0
 17 18  2  0
 18 19  1  0
 19 20  2  0
 20 21  1  0
 16 22  1  0
 22 23  1  0
 22 24  1  0
 22 25  1  0
 13 26  1  0
 26 27  2  0
 26 28  1  0
 28 29  1  0
 29 30  1  0
 30 31  1  0
 31 32  1  0
 32 33  1  0
 33 34  1  0
 34 35  1  0
 35 36  1  0
 35 37  2  0
 30 38  1  0
 38 39  2  0
 39 40  1  0
 40 41  2  0
 41 42  1  0
 42 43  2  0
 28 44  1  0
 44 45  2  0
  9  3  1  0
 44 10  1  0
 20 15  1  0
 43 38  1  0
  1 46  1  0
  1 47  1  0
  1 48  1  0
  7 49  1  0
  8 50  1  0
  9 51  1  0
 12 52  1  0
 12 53  1  0
 12 54  1  0
 14 55  1  0
 14 56  1  0
 17 57  1  0
 18 58  1  0
 19 59  1  0
 29 60  1  0
 29 61  1  0
 30 62  1  6
 31 63  1  0
 32 64  1  0
 32 65  1  0
 33 66  1  0
 33 67  1  0
 34 68  1  0
 34 69  1  0
 36 70  1  0
 39 71  1  0
 40 72  1  0
 41 73  1  0
 42 74  1  0
 43 75  1  0
M  END
$$$$
