
     RDKit          3D

 42 45  0  0  0  0  0  0  0  0999 V2000
    0.6968   -1.4271    0.6218 C   0  0  2  0  0  0  0  0  0  0  0  0
    1.3646   -1.1254    2.0003 C   0  0  0  0  0  0  0  0  0  0  0  0
    1.8454    0.3241    2.1488 C   0  0  0  0  0  0  0  0  0  0  0  0
    2.7370    0.7769    0.9742 C   0  0  0  0  0  0  0  0  0  0  0  0
    2.3800    0.1183   -0.3770 C   0  0  0  0  0  0  0  0  0  0  0  0
    0.8913   -0.3214   -0.4577 C   0  0  1  0  0  0  0  0  0  0  0  0
    0.5684   -0.9387   -1.8543 C   0  0  0  0  0  0  0  0  0  0  0  0
   -0.3321   -2.1966   -1.8004 C   0  0  0  0  0  0  0  0  0  0  0  0
   -1.3041   -2.2057   -0.6767 N   0  0  0  0  0  0  0  0  0  0  0  0
   -2.6608   -1.8042   -1.0852 C   0  0  0  0  0  0  0  0  0  0  0  0
   -0.8111   -1.7573    0.6711 C   0  0  2  0  0  0  0  0  0  0  0  0
   -1.5657   -0.5364    1.2570 C   0  0  0  0  0  0  0  0  0  0  0  0
   -1.2502    0.7376    0.5207 C   0  0  0  0  0  0  0  0  0  0  0  0
   -0.0658    0.8739   -0.2472 C   0  0  0  0  0  0  0  0  0  0  0  0
    0.1551    2.0940   -0.9246 C   0  0  0  0  0  0  0  0  0  0  0  0
   -0.7296    3.1694   -0.7812 C   0  0  0  0  0  0  0  0  0  0  0  0
   -0.4951    4.3747   -1.4395 O   0  0  0  0  0  0  0  0  0  0  0  0
   -1.8595    3.0359    0.0233 C   0  0  0  0  0  0  0  0  0  0  0  0
   -2.1201    1.8288    0.6687 C   0  0  0  0  0  0  0  0  0  0  0  0
    1.2151   -2.3508    0.2746 H   0  0  0  0  0  0  0  0  0  0  0  0
    0.6921   -1.3852    2.8445 H   0  0  0  0  0  0  0  0  0  0  0  0
    2.2569   -1.7806    2.1181 H   0  0  0  0  0  0  0  0  0  0  0  0
    0.9673    0.9971    2.2381 H   0  0  0  0  0  0  0  0  0  0  0  0
    2.4149    0.4241    3.0981 H   0  0  0  0  0  0  0  0  0  0  0  0
    2.6560    1.8813    0.8759 H   0  0  0  0  0  0  0  0  0  0  0  0
    3.7990    0.5483    1.2117 H   0  0  0  0  0  0  0  0  0  0  0  0
    3.0245   -0.7810   -0.5030 H   0  0  0  0  0  0  0  0  0  0  0  0
    2.6570    0.7966   -1.2103 H   0  0  0  0  0  0  0  0  0  0  0  0
    0.0875   -0.1892   -2.5215 H   0  0  0  0  0  0  0  0  0  0  0  0
    1.5077   -1.2312   -2.3737 H   0  0  0  0  0  0  0  0  0  0  0  0
    0.3145   -3.0952   -1.7012 H   0  0  0  0  0  0  0  0  0  0  0  0
   -0.8392   -2.3185   -2.7833 H   0  0  0  0  0  0  0  0  0  0  0  0
   -2.9733   -2.3637   -1.9926 H   0  0  0  0  0  0  0  0  0  0  0  0
   -3.3964   -2.0725   -0.2992 H   0  0  0  0  0  0  0  0  0  0  0  0
   -2.7018   -0.7177   -1.3103 H   0  0  0  0  0  0  0  0  0  0  0  0
   -0.9561   -2.6062    1.3742 H   0  0  0  0  0  0  0  0  0  0  0  0
   -1.2801   -0.3922    2.3193 H   0  0  0  0  0  0  0  0  0  0  0  0
   -2.6594   -0.7141    1.2879 H   0  0  0  0  0  0  0  0  0  0  0  0
    1.0042    2.2153   -1.5811 H   0  0  0  0  0  0  0  0  0  0  0  0
    0.3160    4.5061   -2.0325 H   0  0  0  0  0  0  0  0  0  0  0  0
   -2.5433    3.8670    0.1407 H   0  0  0  0  0  0  0  0  0  0  0  0
   -3.0077    1.7417    1.2835 H   0  0  0  0  0  0  0  0  0  0  0  0
  1  2  1  0
  2  3  1  0
  3  4  1  0
  4  5  1  0
  6  5  1  6
  6  7  1  0
  7  8  1  0
  8  9  1  0
  9 10  1  0
  9 11  1  0
 11 12  1  0
 12 13  1  0
 13 14  2  0
 14 15  1  0
 15 16  2  0
 16 17  1  0
 16 18  1  0
 18 19  2  0
  6  1  1  0
 14  6  1  0
 11  1  1  0
 19 13  1  0
  1 20  1  6
  2 21  1  0
  2 22  1  0
  3 23  1  0
  3 24  1  0
  4 25  1  0
  4 26  1  0
  5 27  1  0
  5 28  1  0
  7 29  1  0
  7 30  1  0
  8 31  1  0
  8 32  1  0
 10 33  1  0
 10 34  1  0
 10 35  1  0
 11 36  1  1
 12 37  1  0
 12 38  1  0
 15 39  1  0
 17 40  1  0
 18 41  1  0
 19 42  1  0
M  END
$$$$
