
     RDKit          3D

 27 28  0  0  0  0  0  0  0  0999 V2000
   -0.5918    1.8441   -2.5270 Cl  0  0  0  0  0  0  0  0  0  0  0  0
   -1.6632    0.9437   -1.4514 C   0  0  0  0  0  0  0  0  0  0  0  0
   -1.2978   -0.3070   -0.9182 C   0  0  0  0  0  0  0  0  0  0  0  0
    0.0406   -0.9344   -1.2338 C   0  0  0  0  0  0  0  0  0  0  0  0
    1.1208   -0.3874   -0.4016 N   0  0  0  0  0  0  0  0  0  0  0  0
    0.9456    0.4346    0.7887 C   0  0  0  0  0  0  0  0  0  0  0  0
    2.3569    0.7053    1.3419 C   0  0  0  0  0  0  0  0  0  0  0  0
    3.3358   -0.1620    0.5398 C   0  0  0  0  0  0  0  0  0  0  0  0
    2.4897   -0.7450   -0.5203 C   0  0  0  0  0  0  0  0  0  0  0  0
    2.9560   -1.5277   -1.4419 N   0  0  0  0  0  0  0  0  0  0  0  0
   -2.1456   -0.9396   -0.0573 N   0  0  0  0  0  0  0  0  0  0  0  0
   -3.3473   -0.3958    0.2751 C   0  0  0  0  0  0  0  0  0  0  0  0
   -4.1151   -1.0042    1.0682 O   0  0  0  0  0  0  0  0  0  0  0  0
   -3.7213    0.8037   -0.2442 N   0  0  0  0  0  0  0  0  0  0  0  0
   -2.9045    1.4821   -1.0934 C   0  0  0  0  0  0  0  0  0  0  0  0
   -3.2691    2.5977   -1.5534 O   0  0  0  0  0  0  0  0  0  0  0  0
   -0.0117   -2.0338   -1.0815 H   0  0  0  0  0  0  0  0  0  0  0  0
    0.2790   -0.7713   -2.3059 H   0  0  0  0  0  0  0  0  0  0  0  0
    0.4416    1.3901    0.5286 H   0  0  0  0  0  0  0  0  0  0  0  0
    0.3393   -0.1186    1.5385 H   0  0  0  0  0  0  0  0  0  0  0  0
    2.6128    1.7797    1.2112 H   0  0  0  0  0  0  0  0  0  0  0  0
    2.4083    0.4562    2.4243 H   0  0  0  0  0  0  0  0  0  0  0  0
    3.7598   -0.9698    1.1743 H   0  0  0  0  0  0  0  0  0  0  0  0
    4.1490    0.4530    0.0977 H   0  0  0  0  0  0  0  0  0  0  0  0
    2.3516   -1.9483   -2.1809 H   0  0  0  0  0  0  0  0  0  0  0  0
   -1.8724   -1.8583    0.3609 H   0  0  0  0  0  0  0  0  0  0  0  0
   -4.6472    1.2130    0.0183 H   0  0  0  0  0  0  0  0  0  0  0  0
  1  2  1  0
  2  3  2  0
  3  4  1  0
  4  5  1  0
  5  6  1  0
  6  7  1  0
  7  8  1  0
  8  9  1  0
  9 10  2  3
  3 11  1  0
 11 12  1  0
 12 13  2  0
 12 14  1  0
 14 15  1  0
 15 16  2  0
 15  2  1  0
  9  5  1  0
  4 17  1  0
  4 18  1  0
  6 19  1  0
  6 20  1  0
  7 21  1  0
  7 22  1  0
  8 23  1  0
  8 24  1  0
 10 25  1  0
 11 26  1  0
 14 27  1  0
M  END
$$$$
