
     RDKit          3D

 34 35  0  0  0  0  0  0  0  0999 V2000
    6.3004    0.0403   -0.2057 N   0  0  0  0  0  0  0  0  0  0  0  0
    5.1661   -1.1328   -0.7755 S   0  0  0  0  0  6  0  0  0  0  0  0
    5.2650   -2.3751    0.0648 O   0  0  0  0  0  0  0  0  0  0  0  0
    5.4869   -1.4893   -2.2001 O   0  0  0  0  0  0  0  0  0  0  0  0
    3.5354   -0.4751   -0.6779 C   0  0  0  0  0  0  0  0  0  0  0  0
    2.7788   -0.6377    0.4888 C   0  0  0  0  0  0  0  0  0  0  0  0
    1.4891   -0.1048    0.5734 C   0  0  0  0  0  0  0  0  0  0  0  0
    0.9405    0.6104   -0.5070 C   0  0  0  0  0  0  0  0  0  0  0  0
    1.7053    0.7652   -1.6772 C   0  0  0  0  0  0  0  0  0  0  0  0
    2.9950    0.2323   -1.7584 C   0  0  0  0  0  0  0  0  0  0  0  0
   -0.4289    1.1733   -0.4353 C   0  0  0  0  0  0  0  0  0  0  0  0
   -1.0626    1.3968   -1.5030 O   0  0  0  0  0  0  0  0  0  0  0  0
   -1.0386    1.4821    0.8286 N   0  0  0  0  0  0  0  0  0  0  0  0
   -2.4597    1.7985    0.9527 C   0  0  0  0  0  0  0  0  0  0  0  0
   -3.2881    0.5577    0.7440 C   0  0  0  0  0  0  0  0  0  0  0  0
   -4.0690    0.3867   -0.4155 C   0  0  0  0  0  0  0  0  0  0  0  0
   -4.1131    1.3504   -1.3704 F   0  0  0  0  0  0  0  0  0  0  0  0
   -4.8114   -0.7866   -0.5950 C   0  0  0  0  0  0  0  0  0  0  0  0
   -5.5637   -0.9475   -1.7121 F   0  0  0  0  0  0  0  0  0  0  0  0
   -4.7775   -1.7945    0.3738 C   0  0  0  0  0  0  0  0  0  0  0  0
   -5.4961   -2.9311    0.1983 F   0  0  0  0  0  0  0  0  0  0  0  0
   -4.0008   -1.6324    1.5237 C   0  0  0  0  0  0  0  0  0  0  0  0
   -3.2577   -0.4633    1.7085 C   0  0  0  0  0  0  0  0  0  0  0  0
    6.1692    0.8985   -0.7867 H   0  0  0  0  0  0  0  0  0  0  0  0
    6.0172    0.2901    0.7683 H   0  0  0  0  0  0  0  0  0  0  0  0
    3.1847   -1.1805    1.3330 H   0  0  0  0  0  0  0  0  0  0  0  0
    0.9191   -0.2751    1.4769 H   0  0  0  0  0  0  0  0  0  0  0  0
    1.3107    1.3098   -2.5261 H   0  0  0  0  0  0  0  0  0  0  0  0
    3.5718    0.3743   -2.6635 H   0  0  0  0  0  0  0  0  0  0  0  0
   -0.4513    1.5276    1.6909 H   0  0  0  0  0  0  0  0  0  0  0  0
   -2.7295    2.6047    0.2375 H   0  0  0  0  0  0  0  0  0  0  0  0
   -2.6598    2.1944    1.9722 H   0  0  0  0  0  0  0  0  0  0  0  0
   -3.9720   -2.4137    2.2723 H   0  0  0  0  0  0  0  0  0  0  0  0
   -2.6553   -0.3535    2.6020 H   0  0  0  0  0  0  0  0  0  0  0  0
  1  2  1  0
  2  3  2  0
  2  4  2  0
  2  5  1  0
  5  6  2  0
  6  7  1  0
  7  8  2  0
  8  9  1  0
  9 10  2  0
  8 11  1  0
 11 12  2  0
 11 13  1  0
 13 14  1  0
 14 15  1  0
 15 16  2  0
 16 17  1  0
 16 18  1  0
 18 19  1  0
 18 20  2  0
 20 21  1  0
 20 22  1  0
 22 23  2  0
 10  5  1  0
 23 15  1  0
  1 24  1  0
  1 25  1  0
  6 26  1  0
  7 27  1  0
  9 28  1  0
 10 29  1  0
 13 30  1  0
 14 31  1  0
 14 32  1  0
 22 33  1  0
 23 34  1  0
M  END
$$$$
