
     RDKit          3D

 36 37  0  0  0  0  0  0  0  0999 V2000
   -2.0060    3.0411   -0.1905 C   0  0  0  0  0  0  0  0  0  0  0  0
   -2.4600    1.6513    0.1607 C   0  0  0  0  0  0  0  0  0  0  0  0
   -1.5474    0.5929    0.1983 C   0  0  0  0  0  0  0  0  0  0  0  0
   -1.9544   -0.6772    0.5047 N   0  0  0  0  0  0  0  0  0  0  0  0
   -0.9630   -1.7740    0.5177 C   0  0  1  0  0  0  0  0  0  0  0  0
   -0.6342   -2.2241   -0.9075 C   0  0  0  0  0  0  0  0  0  0  0  0
    0.8237   -1.8900   -1.0656 C   0  0  2  0  0  0  0  0  0  0  0  0
    1.4940   -2.9053   -1.7654 O   0  0  0  0  0  0  0  0  0  0  0  0
    1.3013   -1.7971    0.3792 C   0  0  1  0  0  0  0  0  0  0  0  0
    2.4973   -0.8528    0.5478 C   0  0  0  0  0  0  0  0  0  0  0  0
    2.1180    0.4648    0.2232 O   0  0  0  0  0  0  0  0  0  0  0  0
    3.4658    1.4854    0.4398 P   0  0  0  0  0  5  0  0  0  0  0  0
    3.0412    3.0520   -0.0388 O   0  0  0  0  0  0  0  0  0  0  0  0
    4.7632    0.9466   -0.5062 O   0  0  0  0  0  0  0  0  0  0  0  0
    3.8707    1.5042    1.8975 O   0  0  0  0  0  0  0  0  0  0  0  0
    0.2214   -1.3543    1.1658 O   0  0  0  0  0  0  0  0  0  0  0  0
   -3.2864   -0.9235    0.7282 C   0  0  0  0  0  0  0  0  0  0  0  0
   -3.6923   -2.0933    0.9717 O   0  0  0  0  0  0  0  0  0  0  0  0
   -4.1901    0.0933    0.6834 N   0  0  0  0  0  0  0  0  0  0  0  0
   -3.8079    1.3667    0.4051 C   0  0  0  0  0  0  0  0  0  0  0  0
   -4.6730    2.2835    0.3634 O   0  0  0  0  0  0  0  0  0  0  0  0
   -2.4493    3.7769    0.5133 H   0  0  0  0  0  0  0  0  0  0  0  0
   -2.3282    3.2855   -1.2243 H   0  0  0  0  0  0  0  0  0  0  0  0
   -0.9004    3.1327   -0.1298 H   0  0  0  0  0  0  0  0  0  0  0  0
   -0.5065    0.7905   -0.0244 H   0  0  0  0  0  0  0  0  0  0  0  0
   -1.3521   -2.6460    1.0892 H   0  0  0  0  0  0  0  0  0  0  0  0
   -0.8023   -3.3206   -1.0022 H   0  0  0  0  0  0  0  0  0  0  0  0
   -1.2480   -1.7017   -1.6746 H   0  0  0  0  0  0  0  0  0  0  0  0
    0.9175   -0.9125   -1.5954 H   0  0  0  0  0  0  0  0  0  0  0  0
    2.3782   -2.5341   -2.0211 H   0  0  0  0  0  0  0  0  0  0  0  0
    1.6021   -2.8090    0.7370 H   0  0  0  0  0  0  0  0  0  0  0  0
    3.3220   -1.2055   -0.1120 H   0  0  0  0  0  0  0  0  0  0  0  0
    2.8300   -0.9141    1.6090 H   0  0  0  0  0  0  0  0  0  0  0  0
    3.8604    3.5912    0.0999 H   0  0  0  0  0  0  0  0  0  0  0  0
    5.4955    1.5875   -0.3221 H   0  0  0  0  0  0  0  0  0  0  0  0
   -5.2008   -0.1108    0.8593 H   0  0  0  0  0  0  0  0  0  0  0  0
  1  2  1  0
  2  3  2  0
  3  4  1  0
  4  5  1  0
  5  6  1  0
  6  7  1  0
  7  8  1  0
  7  9  1  0
  9 10  1  0
 10 11  1  0
 11 12  1  0
 12 13  1  0
 12 14  1  0
 12 15  2  0
  9 16  1  0
  4 17  1  0
 17 18  2  0
 17 19  1  0
 19 20  1  0
 20 21  2  0
 20  2  1  0
 16  5  1  0
  1 22  1  0
  1 23  1  0
  1 24  1  0
  3 25  1  0
  5 26  1  1
  6 27  1  0
  6 28  1  0
  7 29  1  6
  8 30  1  0
  9 31  1  1
 10 32  1  0
 10 33  1  0
 13 34  1  0
 14 35  1  0
 19 36  1  0
M  END
$$$$
