
     RDKit          3D

 49 52  0  0  0  0  0  0  0  0999 V2000
   -1.7471    0.6265   -0.6238 C   0  0  2  0  0  0  0  0  0  0  0  0
   -2.8557    1.6227   -0.3002 C   0  0  0  0  0  0  0  0  0  0  0  0
   -4.1432    0.9210   -0.7710 C   0  0  0  0  0  0  0  0  0  0  0  0
   -3.7411   -0.5344   -1.1219 C   0  0  2  0  0  0  0  0  0  0  0  0
   -4.7194   -1.4914   -0.7847 O   0  0  0  0  0  0  0  0  0  0  0  0
   -2.3875   -0.7516   -0.4123 C   0  0  2  0  0  0  0  0  0  0  0  0
   -2.6221   -1.1151    1.0893 C   0  0  0  0  0  0  0  0  0  0  0  0
   -1.4747   -1.8028   -1.0785 C   0  0  0  0  0  0  0  0  0  0  0  0
   -0.0433   -1.7533   -0.4917 C   0  0  0  0  0  0  0  0  0  0  0  0
    0.5871   -0.3212   -0.5087 C   0  0  1  0  0  0  0  0  0  0  0  0
   -0.3806    0.7615    0.0805 C   0  0  1  0  0  0  0  0  0  0  0  0
    0.2122    2.1627   -0.1429 C   0  0  0  0  0  0  0  0  0  0  0  0
    1.5652    2.2970    0.5497 C   0  0  0  0  0  0  0  0  0  0  0  0
    2.5148    1.2077    0.1079 C   0  0  0  0  0  0  0  0  0  0  0  0
    3.8071    1.5271   -0.0910 C   0  0  0  0  0  0  0  0  0  0  0  0
    4.8251    0.5120   -0.3906 C   0  0  0  0  0  0  0  0  0  0  0  0
    6.0155    0.8665   -0.5996 O   0  0  0  0  0  0  0  0  0  0  0  0
    4.4750   -0.9404   -0.3829 C   0  0  0  0  0  0  0  0  0  0  0  0
    2.9982   -1.1388   -0.7353 C   0  0  0  0  0  0  0  0  0  0  0  0
    2.0342   -0.2524    0.1196 C   0  0  2  0  0  0  0  0  0  0  0  0
    2.0475   -0.7514    1.5876 C   0  0  0  0  0  0  0  0  0  0  0  0
   -1.5477    0.7577   -1.7170 H   0  0  0  0  0  0  0  0  0  0  0  0
   -2.7046    2.5819   -0.8417 H   0  0  0  0  0  0  0  0  0  0  0  0
   -2.8947    1.8232    0.7928 H   0  0  0  0  0  0  0  0  0  0  0  0
   -4.9046    0.9626    0.0376 H   0  0  0  0  0  0  0  0  0  0  0  0
   -4.5574    1.4286   -1.6694 H   0  0  0  0  0  0  0  0  0  0  0  0
   -3.5876   -0.5882   -2.2237 H   0  0  0  0  0  0  0  0  0  0  0  0
   -5.0941   -1.2674    0.1056 H   0  0  0  0  0  0  0  0  0  0  0  0
   -1.6887   -1.1511    1.6809 H   0  0  0  0  0  0  0  0  0  0  0  0
   -3.2989   -0.3906    1.5874 H   0  0  0  0  0  0  0  0  0  0  0  0
   -3.0837   -2.1222    1.1692 H   0  0  0  0  0  0  0  0  0  0  0  0
   -1.4157   -1.6219   -2.1748 H   0  0  0  0  0  0  0  0  0  0  0  0
   -1.8992   -2.8204   -0.9359 H   0  0  0  0  0  0  0  0  0  0  0  0
   -0.0598   -2.1645    0.5361 H   0  0  0  0  0  0  0  0  0  0  0  0
    0.5774   -2.4423   -1.1004 H   0  0  0  0  0  0  0  0  0  0  0  0
    0.7038   -0.0681   -1.5886 H   0  0  0  0  0  0  0  0  0  0  0  0
   -0.5149    0.6283    1.1715 H   0  0  0  0  0  0  0  0  0  0  0  0
   -0.4698    2.9339    0.2755 H   0  0  0  0  0  0  0  0  0  0  0  0
    0.3317    2.3640   -1.2310 H   0  0  0  0  0  0  0  0  0  0  0  0
    1.4294    2.2334    1.6509 H   0  0  0  0  0  0  0  0  0  0  0  0
    1.9705    3.3074    0.3208 H   0  0  0  0  0  0  0  0  0  0  0  0
    4.1286    2.5604   -0.0291 H   0  0  0  0  0  0  0  0  0  0  0  0
    5.1014   -1.4798   -1.1261 H   0  0  0  0  0  0  0  0  0  0  0  0
    4.6939   -1.3650    0.6193 H   0  0  0  0  0  0  0  0  0  0  0  0
    2.7634   -2.2164   -0.6048 H   0  0  0  0  0  0  0  0  0  0  0  0
    2.8699   -0.9003   -1.8148 H   0  0  0  0  0  0  0  0  0  0  0  0
    3.0212   -0.5243    2.0713 H   0  0  0  0  0  0  0  0  0  0  0  0
    1.2631   -0.2611    2.1970 H   0  0  0  0  0  0  0  0  0  0  0  0
    1.8999   -1.8497    1.6441 H   0  0  0  0  0  0  0  0  0  0  0  0
  1  2  1  0
  2  3  1  0
  3  4  1  0
  4  5  1  0
  4  6  1  0
  6  7  1  1
  6  8  1  0
  8  9  1  0
  9 10  1  0
 10 11  1  0
 11 12  1  0
 12 13  1  0
 13 14  1  0
 14 15  2  0
 15 16  1  0
 16 17  2  0
 16 18  1  0
 18 19  1  0
 19 20  1  0
 20 21  1  1
  6  1  1  0
 20 10  1  0
 11  1  1  0
 20 14  1  0
  1 22  1  6
  2 23  1  0
  2 24  1  0
  3 25  1  0
  3 26  1  0
  4 27  1  6
  5 28  1  0
  7 29  1  0
  7 30  1  0
  7 31  1  0
  8 32  1  0
  8 33  1  0
  9 34  1  0
  9 35  1  0
 10 36  1  6
 11 37  1  1
 12 38  1  0
 12 39  1  0
 13 40  1  0
 13 41  1  0
 15 42  1  0
 18 43  1  0
 18 44  1  0
 19 45  1  0
 19 46  1  0
 21 47  1  0
 21 48  1  0
 21 49  1  0
M  END
$$$$
