
     RDKit          3D

 85 88  0  0  0  0  0  0  0  0999 V2000
    3.7978   -1.1901   -2.5199 C   0  0  2  0  0  0  0  0  0  0  0  0
    5.2835   -1.2846   -2.9224 C   0  0  0  0  0  0  0  0  0  0  0  0
    5.4822   -1.0371   -4.4268 C   0  0  0  0  0  0  0  0  0  0  0  0
    4.6475    0.1386   -4.9781 C   0  0  0  0  0  0  0  0  0  0  0  0
    4.0447    1.0085   -3.8703 C   0  0  0  0  0  0  0  0  0  0  0  0
    3.1422    0.1647   -2.9452 C   0  0  2  0  0  0  0  0  0  0  0  0
    2.7022    0.9961   -1.7234 C   0  0  0  0  0  0  0  0  0  0  0  0
    1.7679    0.2438   -0.8517 N   0  0  0  0  0  0  0  0  0  0  0  0
    0.3755    0.3010   -1.3618 C   0  0  0  0  0  0  0  0  0  0  0  0
   -0.6452    0.0482   -0.2269 C   0  0  1  0  0  0  0  0  0  0  0  0
   -0.4603    0.9413    0.8451 O   0  0  0  0  0  0  0  0  0  0  0  0
   -2.1190    0.0499   -0.7155 C   0  0  2  0  0  0  0  0  0  0  0  0
   -2.6303    1.4504   -1.1085 C   0  0  0  0  0  0  0  0  0  0  0  0
   -4.3125    1.3373   -1.8117 S   0  0  0  0  0  0  0  0  0  0  0  0
   -4.4672    3.1096   -2.0374 C   0  0  0  0  0  0  0  0  0  0  0  0
   -5.0029    3.9028   -1.0146 C   0  0  0  0  0  0  0  0  0  0  0  0
   -5.1224    5.2852   -1.1908 C   0  0  0  0  0  0  0  0  0  0  0  0
   -4.7098    5.8764   -2.3892 C   0  0  0  0  0  0  0  0  0  0  0  0
   -4.1779    5.0854   -3.4127 C   0  0  0  0  0  0  0  0  0  0  0  0
   -4.0576    3.7029   -3.2384 C   0  0  0  0  0  0  0  0  0  0  0  0
   -2.9765   -0.5198    0.3317 N   0  0  0  0  0  0  0  0  0  0  0  0
   -3.0534   -1.9324    0.5790 C   0  0  0  0  0  0  0  0  0  0  0  0
   -2.5310   -2.7460   -0.2311 O   0  0  0  0  0  0  0  0  0  0  0  0
   -3.7908   -2.4493    1.7523 C   0  0  0  0  0  0  0  0  0  0  0  0
   -3.5970   -1.9363    3.0646 C   0  0  0  0  0  0  0  0  0  0  0  0
   -2.5075   -0.9327    3.3630 C   0  0  0  0  0  0  0  0  0  0  0  0
   -4.4306   -2.4013    4.1134 C   0  0  0  0  0  0  0  0  0  0  0  0
   -4.3638   -1.8769    5.4068 O   0  0  0  0  0  0  0  0  0  0  0  0
   -5.3622   -3.4144    3.8687 C   0  0  0  0  0  0  0  0  0  0  0  0
   -5.4993   -3.9584    2.5944 C   0  0  0  0  0  0  0  0  0  0  0  0
   -4.7248   -3.4762    1.5419 C   0  0  0  0  0  0  0  0  0  0  0  0
    2.2102   -1.1494   -0.5391 C   0  0  1  0  0  0  0  0  0  0  0  0
    3.6454   -1.4611   -1.0106 C   0  0  0  0  0  0  0  0  0  0  0  0
    2.1245   -1.3808    0.9464 C   0  0  0  0  0  0  0  0  0  0  0  0
    1.6212   -2.4563    1.3686 O   0  0  0  0  0  0  0  0  0  0  0  0
    2.6454   -0.4007    1.8644 N   0  0  0  0  0  0  0  0  0  0  0  0
    2.5934   -0.5062    3.3357 C   0  0  0  0  0  0  0  0  0  0  0  0
    3.3946   -1.7342    3.8097 C   0  0  0  0  0  0  0  0  0  0  0  0
    3.2257    0.7588    3.9518 C   0  0  0  0  0  0  0  0  0  0  0  0
    1.1315   -0.6029    3.8132 C   0  0  0  0  0  0  0  0  0  0  0  0
    3.2622   -2.0070   -3.0561 H   0  0  0  0  0  0  0  0  0  0  0  0
    5.8757   -0.5373   -2.3491 H   0  0  0  0  0  0  0  0  0  0  0  0
    5.6808   -2.2916   -2.6674 H   0  0  0  0  0  0  0  0  0  0  0  0
    6.5613   -0.8436   -4.6116 H   0  0  0  0  0  0  0  0  0  0  0  0
    5.2156   -1.9618   -4.9843 H   0  0  0  0  0  0  0  0  0  0  0  0
    5.2842    0.7720   -5.6332 H   0  0  0  0  0  0  0  0  0  0  0  0
    3.8212   -0.2601   -5.6073 H   0  0  0  0  0  0  0  0  0  0  0  0
    3.4455    1.8229   -4.3331 H   0  0  0  0  0  0  0  0  0  0  0  0
    4.8655    1.4833   -3.2884 H   0  0  0  0  0  0  0  0  0  0  0  0
    2.2240   -0.0737   -3.5277 H   0  0  0  0  0  0  0  0  0  0  0  0
    3.5948    1.2852   -1.1267 H   0  0  0  0  0  0  0  0  0  0  0  0
    2.2523    1.9574   -2.0571 H   0  0  0  0  0  0  0  0  0  0  0  0
    0.2249   -0.4376   -2.1804 H   0  0  0  0  0  0  0  0  0  0  0  0
    0.1680    1.3017   -1.7937 H   0  0  0  0  0  0  0  0  0  0  0  0
   -0.4477   -0.9720    0.1604 H   0  0  0  0  0  0  0  0  0  0  0  0
   -0.3973    1.8591    0.4734 H   0  0  0  0  0  0  0  0  0  0  0  0
   -2.1889   -0.5917   -1.6225 H   0  0  0  0  0  0  0  0  0  0  0  0
   -1.9723    1.9038   -1.8766 H   0  0  0  0  0  0  0  0  0  0  0  0
   -2.6531    2.1147   -0.2180 H   0  0  0  0  0  0  0  0  0  0  0  0
   -5.3224    3.4506   -0.0843 H   0  0  0  0  0  0  0  0  0  0  0  0
   -5.5343    5.8977   -0.3992 H   0  0  0  0  0  0  0  0  0  0  0  0
   -4.8024    6.9462   -2.5248 H   0  0  0  0  0  0  0  0  0  0  0  0
   -3.8591    5.5433   -4.3401 H   0  0  0  0  0  0  0  0  0  0  0  0
   -3.6438    3.0956   -4.0333 H   0  0  0  0  0  0  0  0  0  0  0  0
   -3.5570    0.1188    0.9223 H   0  0  0  0  0  0  0  0  0  0  0  0
   -1.7202   -0.9284    2.5839 H   0  0  0  0  0  0  0  0  0  0  0  0
   -1.9863   -1.1946    4.3071 H   0  0  0  0  0  0  0  0  0  0  0  0
   -2.9445    0.0838    3.4487 H   0  0  0  0  0  0  0  0  0  0  0  0
   -3.7862   -1.0855    5.6583 H   0  0  0  0  0  0  0  0  0  0  0  0
   -5.9878   -3.7790    4.6738 H   0  0  0  0  0  0  0  0  0  0  0  0
   -6.2236   -4.7430    2.4171 H   0  0  0  0  0  0  0  0  0  0  0  0
   -4.8722   -3.8901    0.5514 H   0  0  0  0  0  0  0  0  0  0  0  0
    1.5499   -1.8935   -1.0432 H   0  0  0  0  0  0  0  0  0  0  0  0
    4.3727   -0.8451   -0.4354 H   0  0  0  0  0  0  0  0  0  0  0  0
    3.8800   -2.5296   -0.8056 H   0  0  0  0  0  0  0  0  0  0  0  0
    3.0897    0.4474    1.4435 H   0  0  0  0  0  0  0  0  0  0  0  0
    2.9226   -2.6815    3.4792 H   0  0  0  0  0  0  0  0  0  0  0  0
    4.4283   -1.6984    3.4036 H   0  0  0  0  0  0  0  0  0  0  0  0
    3.4521   -1.7589    4.9195 H   0  0  0  0  0  0  0  0  0  0  0  0
    4.2840    0.8609    3.6278 H   0  0  0  0  0  0  0  0  0  0  0  0
    3.2024    0.7154    5.0624 H   0  0  0  0  0  0  0  0  0  0  0  0
    2.6732    1.6665    3.6255 H   0  0  0  0  0  0  0  0  0  0  0  0
    0.5405    0.2507    3.4177 H   0  0  0  0  0  0  0  0  0  0  0  0
    0.6547   -1.5453    3.4757 H   0  0  0  0  0  0  0  0  0  0  0  0
    1.0797   -0.5816    4.9232 H   0  0  0  0  0  0  0  0  0  0  0  0
  1  2  1  0
  2  3  1  0
  3  4  1  0
  4  5  1  0
  5  6  1  0
  6  7  1  0
  7  8  1  0
  8  9  1  0
  9 10  1  0
 10 11  1  0
 10 12  1  0
 12 13  1  0
 13 14  1  0
 14 15  1  0
 15 16  2  0
 16 17  1  0
 17 18  2  0
 18 19  1  0
 19 20  2  0
 12 21  1  0
 21 22  1  0
 22 23  2  0
 22 24  1  0
 24 25  2  0
 25 26  1  0
 25 27  1  0
 27 28  1  0
 27 29  2  0
 29 30  1  0
 30 31  2  0
  8 32  1  0
 32 33  1  0
 32 34  1  0
 34 35  2  0
 34 36  1  0
 36 37  1  0
 37 38  1  0
 37 39  1  0
 37 40  1  0
  6  1  1  0
 20 15  1  0
 31 24  1  0
 33  1  1  0
  1 41  1  6
  2 42  1  0
  2 43  1  0
  3 44  1  0
  3 45  1  0
  4 46  1  0
  4 47  1  0
  5 48  1  0
  5 49  1  0
  6 50  1  6
  7 51  1  0
  7 52  1  0
  9 53  1  0
  9 54  1  0
 10 55  1  1
 11 56  1  0
 12 57  1  6
 13 58  1  0
 13 59  1  0
 16 60  1  0
 17 61  1  0
 18 62  1  0
 19 63  1  0
 20 64  1  0
 21 65  1  0
 26 66  1  0
 26 67  1  0
 26 68  1  0
 28 69  1  0
 29 70  1  0
 30 71  1  0
 31 72  1  0
 32 73  1  6
 33 74  1  0
 33 75  1  0
 36 76  1  0
 38 77  1  0
 38 78  1  0
 38 79  1  0
 39 80  1  0
 39 81  1  0
 39 82  1  0
 40 83  1  0
 40 84  1  0
 40 85  1  0
M  END
$$$$
