
     RDKit          3D

 49 52  0  0  0  0  0  0  0  0999 V2000
   -2.5230   -0.5077   -0.2348 C   0  0  2  0  0  0  0  0  0  0  0  0
   -3.5580   -0.7574   -1.3239 C   0  0  0  0  0  0  0  0  0  0  0  0
   -4.8737   -0.2438   -0.7108 C   0  0  0  0  0  0  0  0  0  0  0  0
   -4.4980    0.4776    0.6039 C   0  0  2  0  0  0  0  0  0  0  0  0
   -5.2610    1.6418    0.7929 O   0  0  0  0  0  0  0  0  0  0  0  0
   -2.9933    0.7784    0.4580 C   0  0  2  0  0  0  0  0  0  0  0  0
   -2.7978    2.0738   -0.3960 C   0  0  0  0  0  0  0  0  0  0  0  0
   -2.2260    0.9069    1.7912 C   0  0  0  0  0  0  0  0  0  0  0  0
   -0.6914    0.8937    1.5674 C   0  0  0  0  0  0  0  0  0  0  0  0
   -0.2033   -0.3153    0.7090 C   0  0  2  0  0  0  0  0  0  0  0  0
    1.2949   -0.3013    0.4001 C   0  0  0  0  0  0  0  0  0  0  0  0
    2.2255    0.2028    1.3331 C   0  0  0  0  0  0  0  0  0  0  0  0
    3.5975    0.1429    1.0847 C   0  0  0  0  0  0  0  0  0  0  0  0
    4.0808   -0.4388   -0.0955 C   0  0  0  0  0  0  0  0  0  0  0  0
    5.4513   -0.5234   -0.3844 O   0  0  0  0  0  0  0  0  0  0  0  0
    6.4300    0.3755    0.0589 C   0  0  0  0  0  0  0  0  0  0  0  0
    7.8693    0.0153   -0.0867 C   0  0  0  0  0  0  0  0  0  0  0  0
    6.1175    1.5200    0.4857 O   0  0  0  0  0  0  0  0  0  0  0  0
    3.1751   -0.9966   -0.9991 C   0  0  0  0  0  0  0  0  0  0  0  0
    1.7921   -0.9541   -0.7609 C   0  0  0  0  0  0  0  0  0  0  0  0
    0.8783   -1.5406   -1.8159 C   0  0  0  0  0  0  0  0  0  0  0  0
   -0.5687   -1.7134   -1.3466 C   0  0  0  0  0  0  0  0  0  0  0  0
   -1.0291   -0.4526   -0.6051 C   0  0  1  0  0  0  0  0  0  0  0  0
   -2.6378   -1.3602    0.4807 H   0  0  0  0  0  0  0  0  0  0  0  0
   -3.3044   -0.1891   -2.2453 H   0  0  0  0  0  0  0  0  0  0  0  0
   -3.6289   -1.8394   -1.5699 H   0  0  0  0  0  0  0  0  0  0  0  0
   -5.3714    0.4538   -1.4198 H   0  0  0  0  0  0  0  0  0  0  0  0
   -5.5639   -1.0892   -0.4986 H   0  0  0  0  0  0  0  0  0  0  0  0
   -4.6594   -0.2192    1.4611 H   0  0  0  0  0  0  0  0  0  0  0  0
   -6.1830    1.3419    1.0059 H   0  0  0  0  0  0  0  0  0  0  0  0
   -3.3402    2.0179   -1.3621 H   0  0  0  0  0  0  0  0  0  0  0  0
   -3.1863    2.9560    0.1559 H   0  0  0  0  0  0  0  0  0  0  0  0
   -1.7375    2.2920   -0.6212 H   0  0  0  0  0  0  0  0  0  0  0  0
   -2.4920    0.0634    2.4664 H   0  0  0  0  0  0  0  0  0  0  0  0
   -2.5168    1.8462    2.3100 H   0  0  0  0  0  0  0  0  0  0  0  0
   -0.3596    1.8464    1.1043 H   0  0  0  0  0  0  0  0  0  0  0  0
   -0.2353    0.8448    2.5774 H   0  0  0  0  0  0  0  0  0  0  0  0
   -0.3798   -1.2265    1.3247 H   0  0  0  0  0  0  0  0  0  0  0  0
    1.9099    0.6341    2.2703 H   0  0  0  0  0  0  0  0  0  0  0  0
    4.2781    0.5191    1.8362 H   0  0  0  0  0  0  0  0  0  0  0  0
    8.2460    0.3845   -1.0631 H   0  0  0  0  0  0  0  0  0  0  0  0
    7.9889   -1.0875   -0.0429 H   0  0  0  0  0  0  0  0  0  0  0  0
    8.4628    0.4727    0.7328 H   0  0  0  0  0  0  0  0  0  0  0  0
    3.5538   -1.4630   -1.9011 H   0  0  0  0  0  0  0  0  0  0  0  0
    1.2654   -2.5313   -2.1399 H   0  0  0  0  0  0  0  0  0  0  0  0
    0.8914   -0.8668   -2.7003 H   0  0  0  0  0  0  0  0  0  0  0  0
   -1.2060   -1.8938   -2.2386 H   0  0  0  0  0  0  0  0  0  0  0  0
   -0.6466   -2.6037   -0.6836 H   0  0  0  0  0  0  0  0  0  0  0  0
   -0.8363    0.4131   -1.2732 H   0  0  0  0  0  0  0  0  0  0  0  0
  1  2  1  0
  2  3  1  0
  3  4  1  0
  4  5  1  0
  4  6  1  0
  6  7  1  6
  6  8  1  0
  8  9  1  0
  9 10  1  0
 10 11  1  0
 11 12  2  0
 12 13  1  0
 13 14  2  0
 14 15  1  0
 15 16  1  0
 16 17  1  0
 16 18  2  0
 14 19  1  0
 19 20  2  0
 20 21  1  0
 21 22  1  0
 22 23  1  0
  6  1  1  0
 23 10  1  0
 23  1  1  0
 20 11  1  0
  1 24  1  1
  2 25  1  0
  2 26  1  0
  3 27  1  0
  3 28  1  0
  4 29  1  1
  5 30  1  0
  7 31  1  0
  7 32  1  0
  7 33  1  0
  8 34  1  0
  8 35  1  0
  9 36  1  0
  9 37  1  0
 10 38  1  1
 12 39  1  0
 13 40  1  0
 17 41  1  0
 17 42  1  0
 17 43  1  0
 19 44  1  0
 21 45  1  0
 21 46  1  0
 22 47  1  0
 22 48  1  0
 23 49  1  6
M  END
$$$$
