
     RDKit          3D

 39 42  0  0  0  0  0  0  0  0999 V2000
   -1.5889   -0.9053   -0.2032 C   0  0  2  0  0  0  0  0  0  0  0  0
   -1.1078   -1.1911    1.2212 C   0  0  0  0  0  0  0  0  0  0  0  0
   -0.1138   -2.3501    1.1209 C   0  0  0  0  0  0  0  0  0  0  0  0
   -0.0009   -2.7173   -0.3573 C   0  0  0  0  0  0  0  0  0  0  0  0
   -0.5388   -1.5175   -1.1382 C   0  0  2  0  0  0  0  0  0  0  0  0
    0.5562   -0.5128   -1.6151 C   0  0  1  0  0  0  0  0  0  0  0  0
   -0.0388    0.7139   -2.0410 O   0  0  0  0  0  0  0  0  0  0  0  0
   -1.1396    1.2886   -1.3993 C   0  0  0  0  0  0  0  0  0  0  0  0
   -1.8908    0.5529   -0.4635 C   0  0  0  0  0  0  0  0  0  0  0  0
   -2.9701    1.1695    0.1908 C   0  0  0  0  0  0  0  0  0  0  0  0
   -3.3017    2.5022   -0.0898 C   0  0  0  0  0  0  0  0  0  0  0  0
   -4.3692    3.1198    0.5578 O   0  0  0  0  0  0  0  0  0  0  0  0
   -2.5586    3.2191   -1.0321 C   0  0  0  0  0  0  0  0  0  0  0  0
   -1.4840    2.6130   -1.6874 C   0  0  0  0  0  0  0  0  0  0  0  0
    1.6829   -0.2437   -0.6238 C   0  0  0  0  0  0  0  0  0  0  0  0
    1.5766    0.7411    0.3782 C   0  0  0  0  0  0  0  0  0  0  0  0
    2.6216    0.9522    1.2821 C   0  0  0  0  0  0  0  0  0  0  0  0
    3.7934    0.1918    1.1952 C   0  0  0  0  0  0  0  0  0  0  0  0
    4.8397    0.3928    2.0927 O   0  0  0  0  0  0  0  0  0  0  0  0
    3.9165   -0.7771    0.1970 C   0  0  0  0  0  0  0  0  0  0  0  0
    2.8735   -0.9912   -0.7081 C   0  0  0  0  0  0  0  0  0  0  0  0
   -2.5354   -1.4742   -0.3568 H   0  0  0  0  0  0  0  0  0  0  0  0
   -1.9673   -1.4690    1.8700 H   0  0  0  0  0  0  0  0  0  0  0  0
   -0.6132   -0.3045    1.6711 H   0  0  0  0  0  0  0  0  0  0  0  0
    0.8785   -2.0355    1.5116 H   0  0  0  0  0  0  0  0  0  0  0  0
   -0.4638   -3.2239    1.7127 H   0  0  0  0  0  0  0  0  0  0  0  0
    1.0342   -2.9967   -0.6417 H   0  0  0  0  0  0  0  0  0  0  0  0
   -0.6521   -3.5974   -0.5573 H   0  0  0  0  0  0  0  0  0  0  0  0
   -1.0576   -1.8877   -2.0521 H   0  0  0  0  0  0  0  0  0  0  0  0
    1.0187   -0.9599   -2.5226 H   0  0  0  0  0  0  0  0  0  0  0  0
   -3.5576    0.6109    0.9093 H   0  0  0  0  0  0  0  0  0  0  0  0
   -4.9282    2.6275    1.2449 H   0  0  0  0  0  0  0  0  0  0  0  0
   -2.8130    4.2475   -1.2550 H   0  0  0  0  0  0  0  0  0  0  0  0
   -0.9084    3.1772   -2.4101 H   0  0  0  0  0  0  0  0  0  0  0  0
    0.6913    1.3502    0.4741 H   0  0  0  0  0  0  0  0  0  0  0  0
    2.5192    1.7085    2.0498 H   0  0  0  0  0  0  0  0  0  0  0  0
    4.7808    1.0882    2.8274 H   0  0  0  0  0  0  0  0  0  0  0  0
    4.8220   -1.3656    0.1219 H   0  0  0  0  0  0  0  0  0  0  0  0
    2.9945   -1.7469   -1.4743 H   0  0  0  0  0  0  0  0  0  0  0  0
  1  2  1  0
  2  3  1  0
  3  4  1  0
  4  5  1  0
  5  6  1  0
  6  7  1  0
  7  8  1  0
  8  9  2  0
  9 10  1  0
 10 11  2  0
 11 12  1  0
 11 13  1  0
 13 14  2  0
  6 15  1  0
 15 16  2  0
 16 17  1  0
 17 18  2  0
 18 19  1  0
 18 20  1  0
 20 21  2  0
  5  1  1  0
 14  8  1  0
 21 15  1  0
  9  1  1  0
  1 22  1  6
  2 23  1  0
  2 24  1  0
  3 25  1  0
  3 26  1  0
  4 27  1  0
  4 28  1  0
  5 29  1  6
  6 30  1  6
 10 31  1  0
 12 32  1  0
 13 33  1  0
 14 34  1  0
 16 35  1  0
 17 36  1  0
 19 37  1  0
 20 38  1  0
 21 39  1  0
M  END
$$$$
