
     RDKit          3D

 54 57  0  0  0  0  0  0  0  0999 V2000
    3.1211   -0.5808    1.2308 C   0  0  1  0  0  0  0  0  0  0  0  0
    4.2507    0.4117    1.5379 C   0  0  0  0  0  0  0  0  0  0  0  0
    1.7677   -0.0617    1.7693 C   0  0  0  0  0  0  0  0  0  0  0  0
    0.7461   -0.4977    0.7271 C   0  0  1  0  0  0  0  0  0  0  0  0
   -0.6467    0.1870    0.7385 C   0  0  2  0  0  0  0  0  0  0  0  0
   -1.3225    0.0684    2.1172 C   0  0  0  0  0  0  0  0  0  0  0  0
   -2.6720    0.7854    2.1236 C   0  0  0  0  0  0  0  0  0  0  0  0
   -3.5481    0.2893    0.9971 C   0  0  0  0  0  0  0  0  0  0  0  0
   -4.8416    0.0289    1.2512 C   0  0  0  0  0  0  0  0  0  0  0  0
   -5.7238   -0.4812    0.2025 C   0  0  0  0  0  0  0  0  0  0  0  0
   -6.9458   -0.6727    0.4375 O   0  0  0  0  0  0  0  0  0  0  0  0
   -5.1658   -0.8082   -1.1066 C   0  0  0  0  0  0  0  0  0  0  0  0
   -3.8890   -0.5387   -1.3831 C   0  0  0  0  0  0  0  0  0  0  0  0
   -2.9729    0.2430   -0.4340 C   0  0  1  0  0  0  0  0  0  0  0  0
   -2.9063    1.6990   -0.9567 C   0  0  0  0  0  0  0  0  0  0  0  0
   -1.5562   -0.4559   -0.3726 C   0  0  2  0  0  0  0  0  0  0  0  0
   -1.7819   -1.7805   -0.0154 F   0  0  0  0  0  0  0  0  0  0  0  0
   -0.7743   -0.5131   -1.6951 C   0  0  0  0  0  0  0  0  0  0  0  0
   -1.2572   -0.1426   -2.7532 O   0  0  0  0  0  0  0  0  0  0  0  0
    0.6278   -1.0884   -1.6942 C   0  0  0  0  0  0  0  0  0  0  0  0
    1.4857   -0.3619   -0.6239 C   0  0  1  0  0  0  0  0  0  0  0  0
    1.6315    1.1289   -1.0667 C   0  0  0  0  0  0  0  0  0  0  0  0
    2.8788   -1.0202   -0.2670 C   0  0  2  0  0  0  0  0  0  0  0  0
    2.6963   -2.4262   -0.1967 O   0  0  0  0  0  0  0  0  0  0  0  0
    4.0562   -0.7518   -1.2537 C   0  0  0  0  0  0  0  0  0  0  0  0
    4.5557   -1.7089   -1.8298 O   0  0  0  0  0  0  0  0  0  0  0  0
    4.6540    0.5950   -1.5961 C   0  0  0  0  0  0  0  0  0  0  0  0
    6.4239    0.5739   -1.3713 Cl  0  0  0  0  0  0  0  0  0  0  0  0
    3.3799   -1.4906    1.8216 H   0  0  0  0  0  0  0  0  0  0  0  0
    4.0284    1.4267    1.1567 H   0  0  0  0  0  0  0  0  0  0  0  0
    4.3660    0.5014    2.6394 H   0  0  0  0  0  0  0  0  0  0  0  0
    5.2157    0.0397    1.1408 H   0  0  0  0  0  0  0  0  0  0  0  0
    1.7551    1.0454    1.8735 H   0  0  0  0  0  0  0  0  0  0  0  0
    1.5402   -0.5102    2.7614 H   0  0  0  0  0  0  0  0  0  0  0  0
    0.5612   -1.5814    0.9238 H   0  0  0  0  0  0  0  0  0  0  0  0
   -0.5057    1.2690    0.5531 H   0  0  0  0  0  0  0  0  0  0  0  0
   -1.4650   -1.0002    2.3911 H   0  0  0  0  0  0  0  0  0  0  0  0
   -0.6825    0.5359    2.8959 H   0  0  0  0  0  0  0  0  0  0  0  0
   -3.1480    0.6178    3.1151 H   0  0  0  0  0  0  0  0  0  0  0  0
   -2.5170    1.8799    2.0127 H   0  0  0  0  0  0  0  0  0  0  0  0
   -5.2457    0.1546    2.2489 H   0  0  0  0  0  0  0  0  0  0  0  0
   -5.7874   -1.2934   -1.8492 H   0  0  0  0  0  0  0  0  0  0  0  0
   -3.5401   -0.8026   -2.3709 H   0  0  0  0  0  0  0  0  0  0  0  0
   -2.2359    2.3343   -0.3458 H   0  0  0  0  0  0  0  0  0  0  0  0
   -2.5644    1.7518   -2.0088 H   0  0  0  0  0  0  0  0  0  0  0  0
   -3.9178    2.1595   -0.9212 H   0  0  0  0  0  0  0  0  0  0  0  0
    1.0990   -0.9883   -2.6968 H   0  0  0  0  0  0  0  0  0  0  0  0
    0.5214   -2.1703   -1.4746 H   0  0  0  0  0  0  0  0  0  0  0  0
    0.6565    1.6211   -1.2495 H   0  0  0  0  0  0  0  0  0  0  0  0
    2.1582    1.7423   -0.3113 H   0  0  0  0  0  0  0  0  0  0  0  0
    2.1513    1.1933   -2.0423 H   0  0  0  0  0  0  0  0  0  0  0  0
    2.5791   -2.7964   -1.1097 H   0  0  0  0  0  0  0  0  0  0  0  0
    4.4535    0.8124   -2.6662 H   0  0  0  0  0  0  0  0  0  0  0  0
    4.2526    1.4287   -1.0041 H   0  0  0  0  0  0  0  0  0  0  0  0
  1  2  1  0
  1  3  1  0
  3  4  1  0
  4  5  1  0
  5  6  1  0
  6  7  1  0
  7  8  1  0
  8  9  2  0
  9 10  1  0
 10 11  2  0
 10 12  1  0
 12 13  2  0
 13 14  1  0
 14 15  1  6
 14 16  1  0
 16 17  1  1
 16 18  1  0
 18 19  2  0
 18 20  1  0
 20 21  1  0
 21 22  1  6
 21 23  1  0
 23 24  1  1
 23 25  1  0
 25 26  2  0
 25 27  1  0
 27 28  1  0
 23  1  1  0
 21  4  1  0
 16  5  1  0
 14  8  1  0
  1 29  1  1
  2 30  1  0
  2 31  1  0
  2 32  1  0
  3 33  1  0
  3 34  1  0
  4 35  1  1
  5 36  1  6
  6 37  1  0
  6 38  1  0
  7 39  1  0
  7 40  1  0
  9 41  1  0
 12 42  1  0
 13 43  1  0
 15 44  1  0
 15 45  1  0
 15 46  1  0
 20 47  1  0
 20 48  1  0
 22 49  1  0
 22 50  1  0
 22 51  1  0
 24 52  1  0
 27 53  1  0
 27 54  1  0
M  END
$$$$
