
     RDKit          3D

 55 58  0  0  0  0  0  0  0  0999 V2000
    3.3684   -3.1109    1.8513 C   0  0  0  0  0  0  0  0  0  0  0  0
    2.4569   -2.0742    1.5023 O   0  0  0  0  0  0  0  0  0  0  0  0
    2.7879   -0.7108    1.4345 C   0  0  0  0  0  0  0  0  0  0  0  0
    1.7903    0.2089    1.0595 C   0  0  0  0  0  0  0  0  0  0  0  0
    0.4546   -0.2549    0.7961 N   0  0  0  0  0  0  0  0  0  0  0  0
   -0.3774    0.2583   -0.2535 C   0  0  0  0  0  0  0  0  0  0  0  0
    0.1451    1.0668   -1.2264 N   0  0  0  0  0  0  0  0  0  0  0  0
   -0.6733    1.5079   -2.2106 C   0  0  0  0  0  0  0  0  0  0  0  0
   -1.9892    1.1648   -2.2679 C   0  0  0  0  0  0  0  0  0  0  0  0
   -2.5204    1.7751   -3.3856 C   0  0  0  0  0  0  0  0  0  0  0  0
   -1.4575    2.4745   -3.9545 C   0  0  0  0  0  0  0  0  0  0  0  0
   -0.3266    2.3068   -3.2300 N   0  0  0  0  0  0  0  0  0  0  0  0
   -2.5318    0.3273   -1.2964 C   0  0  0  0  0  0  0  0  0  0  0  0
   -3.9199   -0.0426   -1.3134 N   0  0  0  0  0  0  0  0  0  0  0  0
   -4.4740   -1.0519   -0.4512 C   0  0  0  0  0  0  0  0  0  0  0  0
   -3.8082   -2.2810   -0.2986 C   0  0  0  0  0  0  0  0  0  0  0  0
   -4.3617   -3.2963    0.4812 C   0  0  0  0  0  0  0  0  0  0  0  0
   -5.5891   -3.1021    1.1121 C   0  0  0  0  0  0  0  0  0  0  0  0
   -6.2729   -1.8932    0.9644 C   0  0  0  0  0  0  0  0  0  0  0  0
   -7.4443   -1.7216    1.6285 F   0  0  0  0  0  0  0  0  0  0  0  0
   -5.7294   -0.8576    0.1771 C   0  0  0  0  0  0  0  0  0  0  0  0
   -6.4497    0.4318    0.0614 C   0  0  0  0  0  0  0  0  0  0  0  0
   -7.8626    0.4659   -0.1485 N   0  0  0  0  0  0  0  0  0  0  0  0
   -5.8136    1.5165    0.1470 O   0  0  0  0  0  0  0  0  0  0  0  0
   -1.6989   -0.1046   -0.3016 N   0  0  0  0  0  0  0  0  0  0  0  0
    2.0980    1.5786    0.9964 C   0  0  0  0  0  0  0  0  0  0  0  0
    3.3894    2.0286    1.2724 C   0  0  0  0  0  0  0  0  0  0  0  0
    4.3915    1.1209    1.6381 C   0  0  0  0  0  0  0  0  0  0  0  0
    5.7915    1.6044    1.8979 C   0  0  0  0  0  0  0  0  0  0  0  0
    6.7218    1.6852    0.3759 S   0  0  0  0  0  6  0  0  0  0  0  0
    6.8234    0.0753   -0.3771 C   0  0  0  0  0  0  0  0  0  0  0  0
    8.1099    2.1760    0.6753 O   0  0  0  0  0  0  0  0  0  0  0  0
    6.0558    2.6390   -0.5758 O   0  0  0  0  0  0  0  0  0  0  0  0
    4.0878   -0.2465    1.7168 C   0  0  0  0  0  0  0  0  0  0  0  0
    4.2072   -3.1426    1.1241 H   0  0  0  0  0  0  0  0  0  0  0  0
    2.8376   -4.0844    1.8234 H   0  0  0  0  0  0  0  0  0  0  0  0
    3.7575   -2.9476    2.8785 H   0  0  0  0  0  0  0  0  0  0  0  0
    0.0893   -1.0624    1.3500 H   0  0  0  0  0  0  0  0  0  0  0  0
   -3.5371    1.7233   -3.7511 H   0  0  0  0  0  0  0  0  0  0  0  0
   -1.5133    3.0725   -4.8545 H   0  0  0  0  0  0  0  0  0  0  0  0
    0.6151    2.7132   -3.4257 H   0  0  0  0  0  0  0  0  0  0  0  0
   -4.5699    0.4797   -1.9427 H   0  0  0  0  0  0  0  0  0  0  0  0
   -2.8695   -2.4633   -0.8059 H   0  0  0  0  0  0  0  0  0  0  0  0
   -3.8402   -4.2383    0.5919 H   0  0  0  0  0  0  0  0  0  0  0  0
   -6.0101   -3.8907    1.7227 H   0  0  0  0  0  0  0  0  0  0  0  0
   -8.4016   -0.4096   -0.3296 H   0  0  0  0  0  0  0  0  0  0  0  0
   -8.3651    1.3804   -0.1871 H   0  0  0  0  0  0  0  0  0  0  0  0
    1.3334    2.3042    0.7517 H   0  0  0  0  0  0  0  0  0  0  0  0
    3.6075    3.0874    1.2060 H   0  0  0  0  0  0  0  0  0  0  0  0
    5.7686    2.6137    2.3618 H   0  0  0  0  0  0  0  0  0  0  0  0
    6.3131    0.9243    2.6049 H   0  0  0  0  0  0  0  0  0  0  0  0
    7.4934    0.1204   -1.2602 H   0  0  0  0  0  0  0  0  0  0  0  0
    5.8137   -0.2506   -0.7015 H   0  0  0  0  0  0  0  0  0  0  0  0
    7.2281   -0.6527    0.3559 H   0  0  0  0  0  0  0  0  0  0  0  0
    4.8705   -0.9412    1.9905 H   0  0  0  0  0  0  0  0  0  0  0  0
  1  2  1  0
  2  3  1  0
  3  4  2  0
  4  5  1  0
  5  6  1  0
  6  7  2  0
  7  8  1  0
  8  9  2  0
  9 10  1  0
 10 11  2  0
 11 12  1  0
  9 13  1  0
 13 14  1  0
 14 15  1  0
 15 16  2  0
 16 17  1  0
 17 18  2  0
 18 19  1  0
 19 20  1  0
 19 21  2  0
 21 22  1  0
 22 23  1  0
 22 24  2  0
 13 25  2  0
  4 26  1  0
 26 27  2  0
 27 28  1  0
 28 29  1  0
 29 30  1  0
 30 31  1  0
 30 32  2  0
 30 33  2  0
 28 34  2  0
 34  3  1  0
 25  6  1  0
 12  8  1  0
 21 15  1  0
  1 35  1  0
  1 36  1  0
  1 37  1  0
  5 38  1  0
 10 39  1  0
 11 40  1  0
 12 41  1  0
 14 42  1  0
 16 43  1  0
 17 44  1  0
 18 45  1  0
 23 46  1  0
 23 47  1  0
 26 48  1  0
 27 49  1  0
 29 50  1  0
 29 51  1  0
 31 52  1  0
 31 53  1  0
 31 54  1  0
 34 55  1  0
M  END
$$$$
