
     RDKit          3D

 49 51  0  0  0  0  0  0  0  0999 V2000
   -0.6015   -0.7124    1.8977 C   0  0  1  0  0  0  0  0  0  0  0  0
   -0.5594   -2.0554    2.6298 C   0  0  0  0  0  0  0  0  0  0  0  0
    0.6736    0.0009    2.0639 C   0  0  0  0  0  0  0  0  0  0  0  0
    1.7245    0.5794    2.1780 C   0  0  0  0  0  0  0  0  0  0  0  0
    2.9906    1.2656    2.2892 C   0  0  0  0  0  0  0  0  0  0  0  0
    3.8934    1.2828    1.2079 C   0  0  0  0  0  0  0  0  0  0  0  0
    3.5823    0.5929   -0.0892 C   0  0  0  0  0  0  0  0  0  0  0  0
    5.0791    1.9348    1.3368 N   0  0  0  0  0  0  0  0  0  0  0  0
    5.4142    2.5731    2.4869 C   0  0  0  0  0  0  0  0  0  0  0  0
    6.6656    3.2482    2.5895 N   0  0  0  0  0  0  0  0  0  0  0  0
    4.5568    2.5678    3.5394 N   0  0  0  0  0  0  0  0  0  0  0  0
    3.3567    1.9333    3.4738 C   0  0  0  0  0  0  0  0  0  0  0  0
    2.4952    1.9619    4.6171 N   0  0  0  0  0  0  0  0  0  0  0  0
   -0.9071   -0.9065    0.4268 C   0  0  0  0  0  0  0  0  0  0  0  0
    0.0266   -1.5170   -0.4301 C   0  0  0  0  0  0  0  0  0  0  0  0
   -0.2579   -1.7048   -1.7852 C   0  0  0  0  0  0  0  0  0  0  0  0
    0.7197   -2.3082   -2.5907 O   0  0  0  0  0  0  0  0  0  0  0  0
    0.5717   -2.5613   -3.9841 C   0  0  0  0  0  0  0  0  0  0  0  0
   -1.5010   -1.2858   -2.2934 C   0  0  0  0  0  0  0  0  0  0  0  0
   -2.4533   -0.6849   -1.4518 C   0  0  0  0  0  0  0  0  0  0  0  0
   -2.1473   -0.5019   -0.0922 C   0  0  0  0  0  0  0  0  0  0  0  0
   -3.7664   -0.2488   -1.9921 C   0  0  0  0  0  0  0  0  0  0  0  0
   -4.4660   -1.0549   -2.9102 C   0  0  0  0  0  0  0  0  0  0  0  0
   -5.7020   -0.6419   -3.4168 C   0  0  0  0  0  0  0  0  0  0  0  0
   -6.2525    0.5771   -3.0149 C   0  0  0  0  0  0  0  0  0  0  0  0
   -5.5681    1.3859   -2.1050 C   0  0  0  0  0  0  0  0  0  0  0  0
   -4.3321    0.9776   -1.5944 C   0  0  0  0  0  0  0  0  0  0  0  0
   -1.3895   -0.0887    2.3736 H   0  0  0  0  0  0  0  0  0  0  0  0
   -0.3877   -1.8930    3.7157 H   0  0  0  0  0  0  0  0  0  0  0  0
    0.2540   -2.7011    2.2336 H   0  0  0  0  0  0  0  0  0  0  0  0
   -1.5287   -2.5844    2.5069 H   0  0  0  0  0  0  0  0  0  0  0  0
    3.4504   -0.4958    0.0852 H   0  0  0  0  0  0  0  0  0  0  0  0
    2.6507    1.0105   -0.5262 H   0  0  0  0  0  0  0  0  0  0  0  0
    4.4088    0.7368   -0.8171 H   0  0  0  0  0  0  0  0  0  0  0  0
    7.3297    3.2561    1.7838 H   0  0  0  0  0  0  0  0  0  0  0  0
    6.9296    3.7411    3.4714 H   0  0  0  0  0  0  0  0  0  0  0  0
    2.7948    2.4657    5.4812 H   0  0  0  0  0  0  0  0  0  0  0  0
    1.5637    1.4910    4.6223 H   0  0  0  0  0  0  0  0  0  0  0  0
    0.9846   -1.8442   -0.0445 H   0  0  0  0  0  0  0  0  0  0  0  0
    1.4934   -3.0474   -4.3640 H   0  0  0  0  0  0  0  0  0  0  0  0
   -0.2877   -3.2425   -4.1593 H   0  0  0  0  0  0  0  0  0  0  0  0
    0.4217   -1.6069   -4.5317 H   0  0  0  0  0  0  0  0  0  0  0  0
   -1.7258   -1.4098   -3.3440 H   0  0  0  0  0  0  0  0  0  0  0  0
   -2.8824   -0.0587    0.5686 H   0  0  0  0  0  0  0  0  0  0  0  0
   -4.0657   -2.0113   -3.2226 H   0  0  0  0  0  0  0  0  0  0  0  0
   -6.2351   -1.2696   -4.1193 H   0  0  0  0  0  0  0  0  0  0  0  0
   -7.2093    0.8950   -3.4086 H   0  0  0  0  0  0  0  0  0  0  0  0
   -5.9940    2.3321   -1.7970 H   0  0  0  0  0  0  0  0  0  0  0  0
   -3.8110    1.6278   -0.9030 H   0  0  0  0  0  0  0  0  0  0  0  0
  1  2  1  0
  1  3  1  0
  3  4  3  0
  4  5  1  0
  5  6  2  0
  6  7  1  0
  6  8  1  0
  8  9  2  0
  9 10  1  0
  9 11  1  0
 11 12  2  0
 12 13  1  0
  1 14  1  0
 14 15  2  0
 15 16  1  0
 16 17  1  0
 17 18  1  0
 16 19  2  0
 19 20  1  0
 20 21  2  0
 20 22  1  0
 22 23  2  0
 23 24  1  0
 24 25  2  0
 25 26  1  0
 26 27  2  0
 12  5  1  0
 21 14  1  0
 27 22  1  0
  1 28  1  1
  2 29  1  0
  2 30  1  0
  2 31  1  0
  7 32  1  0
  7 33  1  0
  7 34  1  0
 10 35  1  0
 10 36  1  0
 13 37  1  0
 13 38  1  0
 15 39  1  0
 18 40  1  0
 18 41  1  0
 18 42  1  0
 19 43  1  0
 21 44  1  0
 23 45  1  0
 24 46  1  0
 25 47  1  0
 26 48  1  0
 27 49  1  0
M  END
$$$$
