
     RDKit          3D

 53 57  0  0  0  0  0  0  0  0999 V2000
    5.5236    3.7415   -1.2798 O   0  0  0  0  0  0  0  0  0  0  0  0
    5.7415    2.3555   -1.2965 C   0  0  1  0  0  0  0  0  0  0  0  0
    6.8955    1.9613   -0.3707 C   0  0  0  0  0  0  0  0  0  0  0  0
    6.4791    0.6432    0.2678 C   0  0  0  0  0  0  0  0  0  0  0  0
    5.0413    0.5534    0.0791 N   0  0  0  0  0  0  0  0  0  0  0  0
    4.5181    1.6116   -0.7685 C   0  0  0  0  0  0  0  0  0  0  0  0
    4.2341   -0.4576    0.7084 C   0  0  0  0  0  0  0  0  0  0  0  0
    4.7964   -1.3633    1.3811 O   0  0  0  0  0  0  0  0  0  0  0  0
    2.8037   -0.4545    0.5569 N   0  0  0  0  0  0  0  0  0  0  0  0
    1.9105   -1.2900    1.3091 C   0  0  0  0  0  0  0  0  0  0  0  0
    0.5776   -1.4926    1.0602 C   0  0  0  0  0  0  0  0  0  0  0  0
   -0.1819   -1.0097    0.0483 N   0  0  0  0  0  0  0  0  0  0  0  0
   -1.5092   -1.3386   -0.0070 C   0  0  0  0  0  0  0  0  0  0  0  0
   -2.0614   -2.1788    0.9958 C   0  0  0  0  0  0  0  0  0  0  0  0
   -1.2333   -2.6494    2.0244 C   0  0  0  0  0  0  0  0  0  0  0  0
    0.0683   -2.2797    2.0102 N   0  0  0  0  0  0  0  0  0  0  0  0
    1.0018   -2.6019    2.8911 N   0  0  0  0  0  0  0  0  0  0  0  0
    2.1496   -2.0014    2.4856 C   0  0  0  0  0  0  0  0  0  0  0  0
   -2.3190   -0.8202   -1.0826 N   0  0  0  0  0  0  0  0  0  0  0  0
   -1.7541   -0.0403   -2.1730 C   0  0  0  0  0  0  0  0  0  0  0  0
   -2.9325    0.3830   -3.0400 C   0  0  0  0  0  0  0  0  0  0  0  0
   -4.0941   -0.5215   -2.6389 C   0  0  0  0  0  0  0  0  0  0  0  0
   -3.7510   -1.0536   -1.2449 C   0  0  2  0  0  0  0  0  0  0  0  0
   -4.5517   -0.3388   -0.1698 C   0  0  0  0  0  0  0  0  0  0  0  0
   -5.6884   -0.9518    0.3940 C   0  0  0  0  0  0  0  0  0  0  0  0
   -6.0732   -2.1932    0.0029 F   0  0  0  0  0  0  0  0  0  0  0  0
   -6.4389   -0.2850    1.3678 C   0  0  0  0  0  0  0  0  0  0  0  0
   -6.0749    0.9986    1.7797 C   0  0  0  0  0  0  0  0  0  0  0  0
   -4.9615    1.6239    1.2148 C   0  0  0  0  0  0  0  0  0  0  0  0
   -4.6147    2.8740    1.6086 F   0  0  0  0  0  0  0  0  0  0  0  0
   -4.2065    0.9640    0.2410 C   0  0  0  0  0  0  0  0  0  0  0  0
    6.2725    4.1493   -1.7882 H   0  0  0  0  0  0  0  0  0  0  0  0
    5.9595    2.0079   -2.3338 H   0  0  0  0  0  0  0  0  0  0  0  0
    7.8467    1.8540   -0.9358 H   0  0  0  0  0  0  0  0  0  0  0  0
    7.0285    2.7290    0.4240 H   0  0  0  0  0  0  0  0  0  0  0  0
    6.7313    0.6387    1.3508 H   0  0  0  0  0  0  0  0  0  0  0  0
    6.9752   -0.2122   -0.2401 H   0  0  0  0  0  0  0  0  0  0  0  0
    3.8670    2.2809   -0.1643 H   0  0  0  0  0  0  0  0  0  0  0  0
    3.9399    1.1813   -1.6149 H   0  0  0  0  0  0  0  0  0  0  0  0
    2.3737    0.1705   -0.1595 H   0  0  0  0  0  0  0  0  0  0  0  0
   -3.1032   -2.4658    0.9883 H   0  0  0  0  0  0  0  0  0  0  0  0
   -1.6230   -3.2875    2.8073 H   0  0  0  0  0  0  0  0  0  0  0  0
    3.0791   -2.0617    3.0331 H   0  0  0  0  0  0  0  0  0  0  0  0
   -1.0498   -0.6721   -2.7566 H   0  0  0  0  0  0  0  0  0  0  0  0
   -1.2218    0.8519   -1.7773 H   0  0  0  0  0  0  0  0  0  0  0  0
   -3.1956    1.4415   -2.8224 H   0  0  0  0  0  0  0  0  0  0  0  0
   -2.6964    0.2823   -4.1216 H   0  0  0  0  0  0  0  0  0  0  0  0
   -4.1538   -1.3722   -3.3533 H   0  0  0  0  0  0  0  0  0  0  0  0
   -5.0613    0.0280   -2.6686 H   0  0  0  0  0  0  0  0  0  0  0  0
   -3.9435   -2.1490   -1.2224 H   0  0  0  0  0  0  0  0  0  0  0  0
   -7.3076   -0.7629    1.8021 H   0  0  0  0  0  0  0  0  0  0  0  0
   -6.6601    1.5102    2.5330 H   0  0  0  0  0  0  0  0  0  0  0  0
   -3.3522    1.4698   -0.1896 H   0  0  0  0  0  0  0  0  0  0  0  0
  1  2  1  0
  2  3  1  0
  3  4  1  0
  4  5  1  0
  5  6  1  0
  5  7  1  0
  7  8  2  0
  7  9  1  0
  9 10  1  0
 10 11  2  0
 11 12  1  0
 12 13  2  0
 13 14  1  0
 14 15  2  0
 15 16  1  0
 16 17  1  0
 17 18  2  0
 13 19  1  0
 19 20  1  0
 20 21  1  0
 21 22  1  0
 22 23  1  0
 23 24  1  0
 24 25  2  0
 25 26  1  0
 25 27  1  0
 27 28  2  0
 28 29  1  0
 29 30  1  0
 29 31  2  0
  6  2  1  0
 18 10  1  0
 23 19  1  0
 31 24  1  0
 16 11  1  0
  1 32  1  0
  2 33  1  6
  3 34  1  0
  3 35  1  0
  4 36  1  0
  4 37  1  0
  6 38  1  0
  6 39  1  0
  9 40  1  0
 14 41  1  0
 15 42  1  0
 18 43  1  0
 20 44  1  0
 20 45  1  0
 21 46  1  0
 21 47  1  0
 22 48  1  0
 22 49  1  0
 23 50  1  6
 27 51  1  0
 28 52  1  0
 31 53  1  0
M  END
$$$$
