
     RDKit          3D

 28 27  0  0  0  0  0  0  0  0999 V2000
    1.7352   -0.8325   -0.5623 C   0  0  1  0  0  0  0  0  0  0  0  0
    2.5466   -2.0198   -1.6932 S   0  0  0  0  0  0  0  0  0  0  0  0
    2.4548    0.5334   -0.6395 C   0  0  0  0  0  0  0  0  0  0  0  0
    3.8710    0.5053   -0.0497 C   0  0  0  0  0  0  0  0  0  0  0  0
    3.8281    0.3266    1.7628 S   0  0  0  0  0  0  0  0  0  0  0  0
    0.2447   -0.7161   -0.9458 C   0  0  0  0  0  0  0  0  0  0  0  0
   -0.6084   -0.0888    0.1690 C   0  0  0  0  0  0  0  0  0  0  0  0
   -2.0951   -0.0960   -0.2078 C   0  0  0  0  0  0  0  0  0  0  0  0
   -2.9461    0.5350    0.8981 C   0  0  0  0  0  0  0  0  0  0  0  0
   -4.3923    0.5245    0.5159 C   0  0  0  0  0  0  0  0  0  0  0  0
   -4.9222    1.5802   -0.2192 O   0  0  0  0  0  0  0  0  0  0  0  0
   -5.1202   -0.4568    0.8241 O   0  0  0  0  0  0  0  0  0  0  0  0
    1.8110   -1.2424    0.4680 H   0  0  0  0  0  0  0  0  0  0  0  0
    1.8879   -3.1322   -1.1346 H   0  0  0  0  0  0  0  0  0  0  0  0
    2.5169    0.8526   -1.7029 H   0  0  0  0  0  0  0  0  0  0  0  0
    1.8783    1.3129   -0.1007 H   0  0  0  0  0  0  0  0  0  0  0  0
    4.4708   -0.3182   -0.4898 H   0  0  0  0  0  0  0  0  0  0  0  0
    4.3790    1.4633   -0.2906 H   0  0  0  0  0  0  0  0  0  0  0  0
    5.2317    0.3635    1.8642 H   0  0  0  0  0  0  0  0  0  0  0  0
   -0.1547   -1.7343   -1.1482 H   0  0  0  0  0  0  0  0  0  0  0  0
    0.1403   -0.1233   -1.8813 H   0  0  0  0  0  0  0  0  0  0  0  0
   -0.2919    0.9599    0.3474 H   0  0  0  0  0  0  0  0  0  0  0  0
   -0.4678   -0.6651    1.1099 H   0  0  0  0  0  0  0  0  0  0  0  0
   -2.4286   -1.1445   -0.3740 H   0  0  0  0  0  0  0  0  0  0  0  0
   -2.2376    0.4744   -1.1526 H   0  0  0  0  0  0  0  0  0  0  0  0
   -2.8110   -0.0278    1.8477 H   0  0  0  0  0  0  0  0  0  0  0  0
   -2.6250    1.5854    1.0685 H   0  0  0  0  0  0  0  0  0  0  0  0
   -5.8955    1.5807   -0.5000 H   0  0  0  0  0  0  0  0  0  0  0  0
  1  2  1  0
  1  3  1  0
  3  4  1  0
  4  5  1  0
  1  6  1  0
  6  7  1  0
  7  8  1  0
  8  9  1  0
  9 10  1  0
 10 11  1  0
 10 12  2  0
  1 13  1  1
  2 14  1  0
  3 15  1  0
  3 16  1  0
  4 17  1  0
  4 18  1  0
  5 19  1  0
  6 20  1  0
  6 21  1  0
  7 22  1  0
  7 23  1  0
  8 24  1  0
  8 25  1  0
  9 26  1  0
  9 27  1  0
 11 28  1  0
M  END
$$$$
