
     RDKit          3D

 47 48  0  0  0  0  0  0  0  0999 V2000
    0.8625    0.2833   -0.2758 C   0  0  1  0  0  0  0  0  0  0  0  0
    2.3225   -0.1414   -0.5137 C   0  0  0  0  0  0  0  0  0  0  0  0
    3.2142    0.2796    0.6302 C   0  0  0  0  0  0  0  0  0  0  0  0
    4.5333   -0.0100    0.6763 C   0  0  0  0  0  0  0  0  0  0  0  0
    5.2129   -0.7844   -0.4255 C   0  0  0  0  0  0  0  0  0  0  0  0
    5.3662    0.4430    1.8474 C   0  0  0  0  0  0  0  0  0  0  0  0
    0.4087    1.1604   -1.2855 O   0  0  0  0  0  0  0  0  0  0  0  0
   -0.2039   -0.1111   -1.2628 C   0  0  1  0  0  0  0  0  0  0  0  0
    0.2119   -0.9703   -2.4772 C   0  0  0  0  0  0  0  0  0  0  0  0
   -1.7315   -0.1228   -0.8052 C   0  0  1  0  0  0  0  0  0  0  0  0
   -2.4540   -0.8153   -1.8036 O   0  0  0  0  0  0  0  0  0  0  0  0
   -1.8694   -0.9913    0.4931 C   0  0  2  0  0  0  0  0  0  0  0  0
   -3.1894   -1.5067    0.5899 O   0  0  0  0  0  0  0  0  0  0  0  0
   -3.1926   -2.7802    1.1988 C   0  0  0  0  0  0  0  0  0  0  0  0
   -1.5646   -0.2011    1.7420 C   0  0  0  0  0  0  0  0  0  0  0  0
   -0.9026   -0.7078    2.6355 O   0  0  0  0  0  0  0  0  0  0  0  0
   -2.1422    1.1675    1.9315 C   0  0  0  0  0  0  0  0  0  0  0  0
   -1.9329    2.0259    0.6807 C   0  0  0  0  0  0  0  0  0  0  0  0
   -2.3875    1.3240   -0.6326 C   0  0  2  0  0  0  0  0  0  0  0  0
   -3.9412    1.2503   -0.6414 C   0  0  0  0  0  0  0  0  0  0  0  0
   -2.0003    2.1174   -1.7336 O   0  0  0  0  0  0  0  0  0  0  0  0
    0.5860    0.6640    0.7210 H   0  0  0  0  0  0  0  0  0  0  0  0
    2.7163    0.3165   -1.4473 H   0  0  0  0  0  0  0  0  0  0  0  0
    2.3559   -1.2482   -0.6027 H   0  0  0  0  0  0  0  0  0  0  0  0
    2.7745    0.8426    1.4498 H   0  0  0  0  0  0  0  0  0  0  0  0
    6.2937   -0.9174   -0.2064 H   0  0  0  0  0  0  0  0  0  0  0  0
    4.7544   -1.7907   -0.5230 H   0  0  0  0  0  0  0  0  0  0  0  0
    5.1207   -0.2389   -1.3879 H   0  0  0  0  0  0  0  0  0  0  0  0
    6.1797    1.1072    1.4874 H   0  0  0  0  0  0  0  0  0  0  0  0
    5.8166   -0.4414    2.3448 H   0  0  0  0  0  0  0  0  0  0  0  0
    4.7677    0.9998    2.6000 H   0  0  0  0  0  0  0  0  0  0  0  0
   -0.4014   -0.7105   -3.3631 H   0  0  0  0  0  0  0  0  0  0  0  0
    1.2637   -0.8169   -2.7871 H   0  0  0  0  0  0  0  0  0  0  0  0
    0.0651   -2.0434   -2.2353 H   0  0  0  0  0  0  0  0  0  0  0  0
   -2.4850   -0.2498   -2.6192 H   0  0  0  0  0  0  0  0  0  0  0  0
   -1.1188   -1.8171    0.4065 H   0  0  0  0  0  0  0  0  0  0  0  0
   -2.7143   -2.7537    2.2026 H   0  0  0  0  0  0  0  0  0  0  0  0
   -4.2446   -3.1038    1.3359 H   0  0  0  0  0  0  0  0  0  0  0  0
   -2.6908   -3.5294    0.5480 H   0  0  0  0  0  0  0  0  0  0  0  0
   -3.2242    1.0773    2.1624 H   0  0  0  0  0  0  0  0  0  0  0  0
   -1.6569    1.6690    2.7972 H   0  0  0  0  0  0  0  0  0  0  0  0
   -0.8712    2.3327    0.6106 H   0  0  0  0  0  0  0  0  0  0  0  0
   -2.4974    2.9747    0.8162 H   0  0  0  0  0  0  0  0  0  0  0  0
   -4.3195    0.8687   -1.6124 H   0  0  0  0  0  0  0  0  0  0  0  0
   -4.3383    0.6068    0.1661 H   0  0  0  0  0  0  0  0  0  0  0  0
   -4.3779    2.2627   -0.5027 H   0  0  0  0  0  0  0  0  0  0  0  0
   -2.3740    3.0301   -1.6124 H   0  0  0  0  0  0  0  0  0  0  0  0
  1  2  1  0
  2  3  1  0
  3  4  2  3
  4  5  1  0
  4  6  1  0
  1  7  1  0
  7  8  1  0
  8  9  1  6
  8 10  1  0
 10 11  1  6
 10 12  1  0
 12 13  1  0
 13 14  1  0
 12 15  1  0
 15 16  2  0
 15 17  1  0
 17 18  1  0
 18 19  1  0
 19 20  1  0
 19 21  1  6
  8  1  1  0
 19 10  1  0
  1 22  1  1
  2 23  1  0
  2 24  1  0
  3 25  1  0
  5 26  1  0
  5 27  1  0
  5 28  1  0
  6 29  1  0
  6 30  1  0
  6 31  1  0
  9 32  1  0
  9 33  1  0
  9 34  1  0
 11 35  1  0
 12 36  1  6
 14 37  1  0
 14 38  1  0
 14 39  1  0
 17 40  1  0
 17 41  1  0
 18 42  1  0
 18 43  1  0
 20 44  1  0
 20 45  1  0
 20 46  1  0
 21 47  1  0
M  END
$$$$
