
     RDKit          3D

 66 70  0  0  0  0  0  0  0  0999 V2000
   -0.1514   -0.4334   -1.0301 C   0  0  2  0  0  0  0  0  0  0  0  0
    0.4423   -0.9481   -2.3312 C   0  0  0  0  0  0  0  0  0  0  0  0
    1.8373   -1.4867   -1.9313 C   0  0  1  0  0  0  0  0  0  0  0  0
    2.9512   -0.7092   -2.6570 C   0  0  0  0  0  0  0  0  0  0  0  0
    1.9237   -1.4281   -0.3576 C   0  0  2  0  0  0  0  0  0  0  0  0
    2.5896   -0.1989    0.0000 O   0  0  0  0  0  0  0  0  0  0  0  0
    3.1384    0.1542    1.2442 C   0  0  0  0  0  0  0  0  0  0  0  0
    3.0552   -0.6101    2.2418 O   0  0  0  0  0  0  0  0  0  0  0  0
    3.8145    1.4455    1.3846 C   0  0  0  0  0  0  0  0  0  0  0  0
    3.9771    2.3834    0.3851 C   0  0  0  0  0  0  0  0  0  0  0  0
    4.6640    3.4272    0.9667 C   0  0  0  0  0  0  0  0  0  0  0  0
    4.8768    3.0616    2.2809 C   0  0  0  0  0  0  0  0  0  0  0  0
    4.3586    1.8748    2.4997 O   0  0  0  0  0  0  0  0  0  0  0  0
    2.6977   -2.6286    0.2083 C   0  0  0  0  0  0  0  0  0  0  0  0
    2.4127   -3.0787    1.3073 O   0  0  0  0  0  0  0  0  0  0  0  0
    4.0715   -3.3929   -0.6755 S   0  0  0  0  0  0  0  0  0  0  0  0
    5.3704   -2.4862    0.2251 C   0  0  0  0  0  0  0  0  0  0  0  0
    5.4404   -1.1825   -0.2255 F   0  0  0  0  0  0  0  0  0  0  0  0
    0.3980   -1.3861    0.0437 C   0  0  2  0  0  0  0  0  0  0  0  0
   -0.2156   -2.8302   -0.0582 C   0  0  0  0  0  0  0  0  0  0  0  0
    0.0605   -0.7671    1.4280 C   0  0  0  0  0  0  0  0  0  0  0  0
   -1.4584   -0.4911    1.6134 C   0  0  2  0  0  0  0  0  0  0  0  0
   -2.1569   -1.6984    1.7584 O   0  0  0  0  0  0  0  0  0  0  0  0
   -2.0526    0.3862    0.4520 C   0  0  1  0  0  0  0  0  0  0  0  0
   -1.4120    1.6185    0.5515 F   0  0  0  0  0  0  0  0  0  0  0  0
   -1.6848   -0.2097   -0.9575 C   0  0  1  0  0  0  0  0  0  0  0  0
   -2.1420    0.7390   -2.0876 C   0  0  0  0  0  0  0  0  0  0  0  0
   -3.6424    1.0190   -2.0165 C   0  0  2  0  0  0  0  0  0  0  0  0
   -3.9758    1.9058   -3.0289 F   0  0  0  0  0  0  0  0  0  0  0  0
   -4.0010    1.5502   -0.6439 C   0  0  0  0  0  0  0  0  0  0  0  0
   -4.6731    2.7091   -0.5182 C   0  0  0  0  0  0  0  0  0  0  0  0
   -4.9853    3.2613    0.7990 C   0  0  0  0  0  0  0  0  0  0  0  0
   -5.6310    4.3376    0.8982 O   0  0  0  0  0  0  0  0  0  0  0  0
   -4.5297    2.5665    1.9982 C   0  0  0  0  0  0  0  0  0  0  0  0
   -3.8737    1.4105    1.9029 C   0  0  0  0  0  0  0  0  0  0  0  0
   -3.6029    0.6962    0.5761 C   0  0  2  0  0  0  0  0  0  0  0  0
   -4.5032   -0.5652    0.5715 C   0  0  0  0  0  0  0  0  0  0  0  0
    0.3125    0.5710   -0.8743 H   0  0  0  0  0  0  0  0  0  0  0  0
    0.4950   -0.1336   -3.0875 H   0  0  0  0  0  0  0  0  0  0  0  0
   -0.1870   -1.7678   -2.7431 H   0  0  0  0  0  0  0  0  0  0  0  0
    1.8956   -2.5424   -2.2789 H   0  0  0  0  0  0  0  0  0  0  0  0
    2.8612   -0.8622   -3.7535 H   0  0  0  0  0  0  0  0  0  0  0  0
    2.8776    0.3798   -2.4497 H   0  0  0  0  0  0  0  0  0  0  0  0
    3.9511   -1.0673   -2.3441 H   0  0  0  0  0  0  0  0  0  0  0  0
    3.6385    2.3179   -0.6407 H   0  0  0  0  0  0  0  0  0  0  0  0
    4.9738    4.3472    0.4896 H   0  0  0  0  0  0  0  0  0  0  0  0
    5.3901    3.6514    3.0284 H   0  0  0  0  0  0  0  0  0  0  0  0
    6.3452   -2.9807    0.0371 H   0  0  0  0  0  0  0  0  0  0  0  0
    5.1737   -2.4971    1.3175 H   0  0  0  0  0  0  0  0  0  0  0  0
    0.1961   -3.4027   -0.9138 H   0  0  0  0  0  0  0  0  0  0  0  0
   -1.3104   -2.8466   -0.1835 H   0  0  0  0  0  0  0  0  0  0  0  0
   -0.0034   -3.4137    0.8610 H   0  0  0  0  0  0  0  0  0  0  0  0
    0.5727    0.2089    1.5465 H   0  0  0  0  0  0  0  0  0  0  0  0
    0.4239   -1.4285    2.2436 H   0  0  0  0  0  0  0  0  0  0  0  0
   -1.5488    0.0873    2.5604 H   0  0  0  0  0  0  0  0  0  0  0  0
   -1.9391   -2.0551    2.6591 H   0  0  0  0  0  0  0  0  0  0  0  0
   -2.2062   -1.1692   -1.1237 H   0  0  0  0  0  0  0  0  0  0  0  0
   -1.5848    1.7007   -2.0333 H   0  0  0  0  0  0  0  0  0  0  0  0
   -1.9258    0.2776   -3.0752 H   0  0  0  0  0  0  0  0  0  0  0  0
   -4.2022    0.0776   -2.2006 H   0  0  0  0  0  0  0  0  0  0  0  0
   -4.9781    3.2771   -1.3879 H   0  0  0  0  0  0  0  0  0  0  0  0
   -4.7322    2.9911    2.9738 H   0  0  0  0  0  0  0  0  0  0  0  0
   -3.6063    0.9176    2.8284 H   0  0  0  0  0  0  0  0  0  0  0  0
   -4.2330   -1.2783   -0.2308 H   0  0  0  0  0  0  0  0  0  0  0  0
   -5.5650   -0.2732    0.4157 H   0  0  0  0  0  0  0  0  0  0  0  0
   -4.4728   -1.1021    1.5420 H   0  0  0  0  0  0  0  0  0  0  0  0
  1  2  1  0
  2  3  1  0
  3  4  1  0
  3  5  1  0
  5  6  1  6
  6  7  1  0
  7  8  2  0
  7  9  1  0
  9 10  2  0
 10 11  1  0
 11 12  2  0
 12 13  1  0
  5 14  1  0
 14 15  2  0
 14 16  1  0
 16 17  1  0
 17 18  1  0
  5 19  1  0
 19 20  1  1
 19 21  1  0
 21 22  1  0
 22 23  1  0
 22 24  1  0
 24 25  1  6
 24 26  1  0
 26 27  1  0
 27 28  1  0
 28 29  1  0
 28 30  1  0
 30 31  2  0
 31 32  1  0
 32 33  2  0
 32 34  1  0
 34 35  2  0
 35 36  1  0
 36 37  1  1
 19  1  1  0
 36 24  1  0
 26  1  1  0
 36 30  1  0
 13  9  1  0
  1 38  1  1
  2 39  1  0
  2 40  1  0
  3 41  1  6
  4 42  1  0
  4 43  1  0
  4 44  1  0
 10 45  1  0
 11 46  1  0
 12 47  1  0
 17 48  1  0
 17 49  1  0
 20 50  1  0
 20 51  1  0
 20 52  1  0
 21 53  1  0
 21 54  1  0
 22 55  1  1
 23 56  1  0
 26 57  1  6
 27 58  1  0
 27 59  1  0
 28 60  1  6
 31 61  1  0
 34 62  1  0
 35 63  1  0
 37 64  1  0
 37 65  1  0
 37 66  1  0
M  END
$$$$
