
     RDKit          3D

 30 32  0  0  0  0  0  0  0  0999 V2000
    6.0921    0.3736    0.1500 O   0  0  0  0  0  0  0  0  0  0  0  0
    4.7008    0.3743    0.0801 C   0  0  0  0  0  0  0  0  0  0  0  0
    3.9653   -0.4337    0.9516 C   0  0  0  0  0  0  0  0  0  0  0  0
    2.5684   -0.4440    0.8930 C   0  0  0  0  0  0  0  0  0  0  0  0
    1.8874    0.3580   -0.0417 C   0  0  0  0  0  0  0  0  0  0  0  0
    2.6359    1.1692   -0.9149 C   0  0  0  0  0  0  0  0  0  0  0  0
    4.0327    1.1760   -0.8539 C   0  0  0  0  0  0  0  0  0  0  0  0
    0.4033    0.3491   -0.1053 C   0  0  0  0  0  0  0  0  0  0  0  0
   -0.3087    1.5453   -0.2860 C   0  0  0  0  0  0  0  0  0  0  0  0
   -1.7039    1.5441   -0.3452 C   0  0  0  0  0  0  0  0  0  0  0  0
   -2.4271    0.3417   -0.2262 C   0  0  0  0  0  0  0  0  0  0  0  0
   -1.7110   -0.8687   -0.0444 C   0  0  0  0  0  0  0  0  0  0  0  0
   -2.4051   -2.0792    0.0742 C   0  0  0  0  0  0  0  0  0  0  0  0
   -3.7968   -2.1001    0.0164 C   0  0  0  0  0  0  0  0  0  0  0  0
   -4.5209   -0.9190   -0.1607 C   0  0  0  0  0  0  0  0  0  0  0  0
   -5.9138   -1.0025   -0.2104 O   0  0  0  0  0  0  0  0  0  0  0  0
   -3.8425    0.3130   -0.2837 C   0  0  0  0  0  0  0  0  0  0  0  0
   -4.7734    1.7993   -0.5085 Cl  0  0  0  0  0  0  0  0  0  0  0  0
   -0.3086   -0.8558    0.0145 C   0  0  0  0  0  0  0  0  0  0  0  0
    6.6535    0.9482   -0.4677 H   0  0  0  0  0  0  0  0  0  0  0  0
    4.4767   -1.0524    1.6781 H   0  0  0  0  0  0  0  0  0  0  0  0
    2.0207   -1.0655    1.5902 H   0  0  0  0  0  0  0  0  0  0  0  0
    2.1421    1.7846   -1.6563 H   0  0  0  0  0  0  0  0  0  0  0  0
    4.5945    1.8022   -1.5352 H   0  0  0  0  0  0  0  0  0  0  0  0
    0.2149    2.4900   -0.3641 H   0  0  0  0  0  0  0  0  0  0  0  0
   -2.2043    2.4931   -0.4813 H   0  0  0  0  0  0  0  0  0  0  0  0
   -1.8708   -3.0119    0.2127 H   0  0  0  0  0  0  0  0  0  0  0  0
   -4.3194   -3.0438    0.1103 H   0  0  0  0  0  0  0  0  0  0  0  0
   -6.5123   -0.1965   -0.3357 H   0  0  0  0  0  0  0  0  0  0  0  0
    0.2304   -1.7885    0.1361 H   0  0  0  0  0  0  0  0  0  0  0  0
  1  2  1  0
  2  3  2  0
  3  4  1  0
  4  5  2  0
  5  6  1  0
  6  7  2  0
  5  8  1  0
  8  9  2  0
  9 10  1  0
 10 11  2  0
 11 12  1  0
 12 13  1  0
 13 14  2  0
 14 15  1  0
 15 16  1  0
 15 17  2  0
 17 18  1  0
 12 19  2  0
  7  2  1  0
 19  8  1  0
 17 11  1  0
  1 20  1  0
  3 21  1  0
  4 22  1  0
  6 23  1  0
  7 24  1  0
  9 25  1  0
 10 26  1  0
 13 27  1  0
 14 28  1  0
 16 29  1  0
 19 30  1  0
M  END
$$$$
