
     RDKit          3D

 62 66  0  0  0  0  0  0  0  0999 V2000
   -5.1564    4.4761   -0.7267 C   0  0  0  0  0  0  0  0  0  0  0  0
   -4.1327    3.9897   -1.5885 O   0  0  0  0  0  0  0  0  0  0  0  0
   -3.1624    3.0488   -1.2129 C   0  0  0  0  0  0  0  0  0  0  0  0
   -2.2186    2.6518   -2.1629 C   0  0  0  0  0  0  0  0  0  0  0  0
   -1.2336    1.7153   -1.8405 C   0  0  0  0  0  0  0  0  0  0  0  0
   -1.1574    1.1620   -0.5456 C   0  0  0  0  0  0  0  0  0  0  0  0
   -2.1269    1.5541    0.4010 C   0  0  0  0  0  0  0  0  0  0  0  0
   -3.1107    2.4913    0.0758 C   0  0  0  0  0  0  0  0  0  0  0  0
   -0.1262    0.0624   -0.2348 C   0  0  1  0  0  0  0  0  0  0  0  0
    0.9200    0.0792   -1.2140 O   0  0  0  0  0  0  0  0  0  0  0  0
    2.1601    0.1216   -0.6198 C   0  0  0  0  0  0  0  0  0  0  0  0
    3.3849    0.1095   -1.2788 C   0  0  0  0  0  0  0  0  0  0  0  0
    4.5635    0.1626   -0.5179 C   0  0  0  0  0  0  0  0  0  0  0  0
    5.7912    0.1475   -1.1963 O   0  0  0  0  0  0  0  0  0  0  0  0
    7.0634    0.1956   -0.5588 C   0  0  0  0  0  0  0  0  0  0  0  0
    4.4774    0.2300    0.8962 C   0  0  0  0  0  0  0  0  0  0  0  0
    3.2179    0.2434    1.5405 C   0  0  0  0  0  0  0  0  0  0  0  0
    3.0820    0.3101    2.9352 O   0  0  0  0  0  0  0  0  0  0  0  0
    4.1729    0.3635    3.8477 C   0  0  0  0  0  0  0  0  0  0  0  0
    2.0688    0.1810    0.7399 C   0  0  0  0  0  0  0  0  0  0  0  0
    0.6179    0.2116    1.1502 C   0  0  1  0  0  0  0  0  0  0  0  0
    0.3354    1.4468    1.7658 O   0  0  0  0  0  0  0  0  0  0  0  0
    0.1680   -0.9943    2.0346 C   0  0  2  0  0  0  0  0  0  0  0  0
    1.2206   -1.9131    2.2108 O   0  0  0  0  0  0  0  0  0  0  0  0
   -1.0122   -1.6405    1.2856 C   0  0  1  0  0  0  0  0  0  0  0  0
   -0.7490   -1.3537   -0.1989 C   0  0  1  0  0  0  0  0  0  0  0  0
   -1.9163   -1.5666   -1.1601 C   0  0  0  0  0  0  0  0  0  0  0  0
   -1.6300   -1.9239   -2.4914 C   0  0  0  0  0  0  0  0  0  0  0  0
   -2.6568   -2.0739   -3.4272 C   0  0  0  0  0  0  0  0  0  0  0  0
   -3.9831   -1.8579   -3.0515 C   0  0  0  0  0  0  0  0  0  0  0  0
   -4.2841   -1.4871   -1.7402 C   0  0  0  0  0  0  0  0  0  0  0  0
   -3.2616   -1.3366   -0.7989 C   0  0  0  0  0  0  0  0  0  0  0  0
   -1.2409   -3.1057    1.5981 C   0  0  0  0  0  0  0  0  0  0  0  0
   -0.3321   -4.1238    1.1685 N   0  0  0  0  0  0  0  0  0  0  0  0
   -2.2581   -3.4368    2.2641 O   0  0  0  0  0  0  0  0  0  0  0  0
   -4.7062    4.9864    0.1509 H   0  0  0  0  0  0  0  0  0  0  0  0
   -5.7802    5.2067   -1.2811 H   0  0  0  0  0  0  0  0  0  0  0  0
   -5.8034    3.6380   -0.3916 H   0  0  0  0  0  0  0  0  0  0  0  0
   -2.2549    3.0645   -3.1632 H   0  0  0  0  0  0  0  0  0  0  0  0
   -0.5426    1.4153   -2.6171 H   0  0  0  0  0  0  0  0  0  0  0  0
   -2.1337    1.1371    1.3970 H   0  0  0  0  0  0  0  0  0  0  0  0
   -3.8315    2.7687    0.8327 H   0  0  0  0  0  0  0  0  0  0  0  0
    3.4246    0.0601   -2.3593 H   0  0  0  0  0  0  0  0  0  0  0  0
    7.1642    1.1367    0.0221 H   0  0  0  0  0  0  0  0  0  0  0  0
    7.8578    0.1693   -1.3325 H   0  0  0  0  0  0  0  0  0  0  0  0
    7.1891   -0.6823    0.1096 H   0  0  0  0  0  0  0  0  0  0  0  0
    5.3804    0.2728    1.4867 H   0  0  0  0  0  0  0  0  0  0  0  0
    3.7771    0.4078    4.8828 H   0  0  0  0  0  0  0  0  0  0  0  0
    4.7828    1.2725    3.6607 H   0  0  0  0  0  0  0  0  0  0  0  0
    4.8007   -0.5468    3.7455 H   0  0  0  0  0  0  0  0  0  0  0  0
    0.8002    1.4632    2.6421 H   0  0  0  0  0  0  0  0  0  0  0  0
   -0.1847   -0.6283    3.0291 H   0  0  0  0  0  0  0  0  0  0  0  0
    1.0633   -2.3753    3.0752 H   0  0  0  0  0  0  0  0  0  0  0  0
   -1.9144   -1.0903    1.6155 H   0  0  0  0  0  0  0  0  0  0  0  0
    0.0532   -2.0574   -0.5144 H   0  0  0  0  0  0  0  0  0  0  0  0
   -0.6061   -2.0793   -2.8088 H   0  0  0  0  0  0  0  0  0  0  0  0
   -2.4226   -2.3517   -4.4467 H   0  0  0  0  0  0  0  0  0  0  0  0
   -4.7771   -1.9708   -3.7782 H   0  0  0  0  0  0  0  0  0  0  0  0
   -5.3124   -1.3080   -1.4535 H   0  0  0  0  0  0  0  0  0  0  0  0
   -3.5380   -1.0257    0.1962 H   0  0  0  0  0  0  0  0  0  0  0  0
   -0.5315   -5.1249    1.3876 H   0  0  0  0  0  0  0  0  0  0  0  0
    0.5510   -3.8979    0.6615 H   0  0  0  0  0  0  0  0  0  0  0  0
  1  2  1  0
  2  3  1  0
  3  4  2  0
  4  5  1  0
  5  6  2  0
  6  7  1  0
  7  8  2  0
  9  6  1  6
  9 10  1  0
 10 11  1  0
 11 12  2  0
 12 13  1  0
 13 14  1  0
 14 15  1  0
 13 16  2  0
 16 17  1  0
 17 18  1  0
 18 19  1  0
 17 20  2  0
 20 21  1  0
 21 22  1  1
 21 23  1  0
 23 24  1  0
 23 25  1  0
 25 26  1  0
 26 27  1  0
 27 28  2  0
 28 29  1  0
 29 30  2  0
 30 31  1  0
 31 32  2  0
 25 33  1  0
 33 34  1  0
 33 35  2  0
  8  3  1  0
 21  9  1  0
 32 27  1  0
 26  9  1  0
 20 11  1  0
  1 36  1  0
  1 37  1  0
  1 38  1  0
  4 39  1  0
  5 40  1  0
  7 41  1  0
  8 42  1  0
 12 43  1  0
 15 44  1  0
 15 45  1  0
 15 46  1  0
 16 47  1  0
 19 48  1  0
 19 49  1  0
 19 50  1  0
 22 51  1  0
 23 52  1  1
 24 53  1  0
 25 54  1  1
 26 55  1  6
 28 56  1  0
 29 57  1  0
 30 58  1  0
 31 59  1  0
 32 60  1  0
 34 61  1  0
 34 62  1  0
M  END
$$$$
