
     RDKit          3D

 33 33  0  0  0  0  0  0  0  0999 V2000
   -2.6286   -0.9114   -1.2875 C   0  0  0  0  0  0  0  0  0  0  0  0
   -2.6549    0.0673   -0.0913 C   0  0  0  0  0  0  0  0  0  0  0  0
   -2.8399   -0.7139    1.2284 C   0  0  0  0  0  0  0  0  0  0  0  0
   -3.8673    1.0079   -0.2565 C   0  0  0  0  0  0  0  0  0  0  0  0
   -1.4299    0.9045   -0.0336 N   0  0  0  0  0  0  0  0  0  0  0  0
   -0.1581    0.1608   -0.0462 C   0  0  0  0  0  0  0  0  0  0  0  0
    0.9994    1.0935    0.3740 C   0  0  0  0  0  0  0  0  0  0  0  0
    0.8349    1.6561    1.6572 O   0  0  0  0  0  0  0  0  0  0  0  0
    2.3364    0.3796    0.2741 C   0  0  0  0  0  0  0  0  0  0  0  0
    3.1670    0.6559   -0.8300 C   0  0  0  0  0  0  0  0  0  0  0  0
    4.3962    0.0103   -0.9793 C   0  0  0  0  0  0  0  0  0  0  0  0
    4.8131   -0.9269   -0.0355 C   0  0  0  0  0  0  0  0  0  0  0  0
    3.9998   -1.2252    1.0581 C   0  0  0  0  0  0  0  0  0  0  0  0
    2.7638   -0.5863    1.2214 C   0  0  0  0  0  0  0  0  0  0  0  0
    1.7971   -1.0423    2.6210 Cl  0  0  0  0  0  0  0  0  0  0  0  0
   -2.4252   -0.3632   -2.2324 H   0  0  0  0  0  0  0  0  0  0  0  0
   -3.6050   -1.4332   -1.3866 H   0  0  0  0  0  0  0  0  0  0  0  0
   -1.8479   -1.6897   -1.1537 H   0  0  0  0  0  0  0  0  0  0  0  0
   -2.7228   -0.0329    2.0987 H   0  0  0  0  0  0  0  0  0  0  0  0
   -2.1086   -1.5420    1.3257 H   0  0  0  0  0  0  0  0  0  0  0  0
   -3.8512   -1.1729    1.2749 H   0  0  0  0  0  0  0  0  0  0  0  0
   -4.8201    0.4352   -0.2699 H   0  0  0  0  0  0  0  0  0  0  0  0
   -3.7952    1.5774   -1.2082 H   0  0  0  0  0  0  0  0  0  0  0  0
   -3.9072    1.7370    0.5816 H   0  0  0  0  0  0  0  0  0  0  0  0
   -1.4186    1.5519   -0.8579 H   0  0  0  0  0  0  0  0  0  0  0  0
    0.0470   -0.2206   -1.0719 H   0  0  0  0  0  0  0  0  0  0  0  0
   -0.1903   -0.7053    0.6418 H   0  0  0  0  0  0  0  0  0  0  0  0
    0.9970    1.9465   -0.3403 H   0  0  0  0  0  0  0  0  0  0  0  0
    0.1331    1.1599    2.1525 H   0  0  0  0  0  0  0  0  0  0  0  0
    2.8635    1.3736   -1.5822 H   0  0  0  0  0  0  0  0  0  0  0  0
    5.0253    0.2358   -1.8307 H   0  0  0  0  0  0  0  0  0  0  0  0
    5.7658   -1.4268   -0.1539 H   0  0  0  0  0  0  0  0  0  0  0  0
    4.3314   -1.9605    1.7805 H   0  0  0  0  0  0  0  0  0  0  0  0
  1  2  1  0
  2  3  1  0
  2  4  1  0
  2  5  1  0
  5  6  1  0
  6  7  1  0
  7  8  1  0
  7  9  1  0
  9 10  2  0
 10 11  1  0
 11 12  2  0
 12 13  1  0
 13 14  2  0
 14 15  1  0
 14  9  1  0
  1 16  1  0
  1 17  1  0
  1 18  1  0
  3 19  1  0
  3 20  1  0
  3 21  1  0
  4 22  1  0
  4 23  1  0
  4 24  1  0
  5 25  1  0
  6 26  1  0
  6 27  1  0
  7 28  1  0
  8 29  1  0
 10 30  1  0
 11 31  1  0
 12 32  1  0
 13 33  1  0
M  END
$$$$
