
     RDKit          3D

 45 46  0  0  0  0  0  0  0  0999 V2000
   -5.8582   -2.0557   -0.4382 C   0  0  0  0  0  0  0  0  0  0  0  0
   -5.1135   -1.0483    0.4338 C   0  0  0  0  0  0  0  0  0  0  0  0
   -4.1725   -0.1752   -0.4159 C   0  0  0  0  0  0  0  0  0  0  0  0
   -3.3547    0.8738    0.3800 C   0  0  2  0  0  0  0  0  0  0  0  0
   -4.2448    1.8504    1.1639 C   0  0  0  0  0  0  0  0  0  0  0  0
   -2.3552    1.8369   -0.8230 S   0  0  0  0  0  0  0  0  0  0  0  0
   -0.8518    1.1583   -0.1245 C   0  0  0  0  0  0  0  0  0  0  0  0
    0.4332    1.4457   -0.6907 N   0  0  0  0  0  0  0  0  0  0  0  0
    1.6789    0.8807   -0.1554 C   0  0  0  0  0  0  0  0  0  0  0  0
    1.8230   -0.5821   -0.6376 C   0  0  0  0  0  0  0  0  0  0  0  0
    2.6097   -1.4848    0.3410 C   0  0  0  0  0  0  0  0  0  0  0  0
    3.9672   -1.9491   -0.2106 C   0  0  0  0  0  0  0  0  0  0  0  0
    5.1200   -0.9835    0.0932 C   0  0  0  0  0  0  0  0  0  0  0  0
    5.0226    0.3538   -0.6582 C   0  0  0  0  0  0  0  0  0  0  0  0
    4.1963    1.4226    0.0919 C   0  0  0  0  0  0  0  0  0  0  0  0
    2.8636    1.7663   -0.5958 C   0  0  0  0  0  0  0  0  0  0  0  0
   -0.9867    0.4033    0.9108 N   0  0  0  0  0  0  0  0  0  0  0  0
   -2.3408    0.2318    1.2827 C   0  0  0  0  0  0  0  0  0  0  0  0
   -2.6518   -0.4053    2.3238 O   0  0  0  0  0  0  0  0  0  0  0  0
   -6.5311   -2.6709    0.1957 H   0  0  0  0  0  0  0  0  0  0  0  0
   -5.1387   -2.7301   -0.9498 H   0  0  0  0  0  0  0  0  0  0  0  0
   -6.4720   -1.5286   -1.1994 H   0  0  0  0  0  0  0  0  0  0  0  0
   -4.5372   -1.6109    1.1963 H   0  0  0  0  0  0  0  0  0  0  0  0
   -5.8657   -0.4149    0.9489 H   0  0  0  0  0  0  0  0  0  0  0  0
   -4.7824    0.3564   -1.1800 H   0  0  0  0  0  0  0  0  0  0  0  0
   -3.4665   -0.8386   -0.9641 H   0  0  0  0  0  0  0  0  0  0  0  0
   -5.0031    2.3060    0.4919 H   0  0  0  0  0  0  0  0  0  0  0  0
   -3.6294    2.6657    1.6019 H   0  0  0  0  0  0  0  0  0  0  0  0
   -4.7668    1.3367    1.9981 H   0  0  0  0  0  0  0  0  0  0  0  0
    0.4668    2.0828   -1.5189 H   0  0  0  0  0  0  0  0  0  0  0  0
    1.6182    0.9190    0.9551 H   0  0  0  0  0  0  0  0  0  0  0  0
    0.8067   -1.0230   -0.7401 H   0  0  0  0  0  0  0  0  0  0  0  0
    2.2507   -0.6065   -1.6633 H   0  0  0  0  0  0  0  0  0  0  0  0
    2.0002   -2.3983    0.5215 H   0  0  0  0  0  0  0  0  0  0  0  0
    2.7390   -1.0143    1.3393 H   0  0  0  0  0  0  0  0  0  0  0  0
    4.2172   -2.9178    0.2755 H   0  0  0  0  0  0  0  0  0  0  0  0
    3.9102   -2.1554   -1.3016 H   0  0  0  0  0  0  0  0  0  0  0  0
    6.0589   -1.4854   -0.2287 H   0  0  0  0  0  0  0  0  0  0  0  0
    5.2140   -0.8232    1.1895 H   0  0  0  0  0  0  0  0  0  0  0  0
    4.6561    0.1894   -1.6945 H   0  0  0  0  0  0  0  0  0  0  0  0
    6.0590    0.7443   -0.7661 H   0  0  0  0  0  0  0  0  0  0  0  0
    4.8016    2.3561    0.1168 H   0  0  0  0  0  0  0  0  0  0  0  0
    4.0258    1.1519    1.1562 H   0  0  0  0  0  0  0  0  0  0  0  0
    2.6123    2.8149   -0.3201 H   0  0  0  0  0  0  0  0  0  0  0  0
    2.9716    1.7551   -1.7026 H   0  0  0  0  0  0  0  0  0  0  0  0
  1  2  1  0
  2  3  1  0
  4  3  1  6
  4  5  1  0
  4  6  1  0
  6  7  1  0
  7  8  1  0
  8  9  1  0
  9 10  1  0
 10 11  1  0
 11 12  1  0
 12 13  1  0
 13 14  1  0
 14 15  1  0
 15 16  1  0
  7 17  2  0
 17 18  1  0
 18 19  2  0
 18  4  1  0
 16  9  1  0
  1 20  1  0
  1 21  1  0
  1 22  1  0
  2 23  1  0
  2 24  1  0
  3 25  1  0
  3 26  1  0
  5 27  1  0
  5 28  1  0
  5 29  1  0
  8 30  1  0
  9 31  1  0
 10 32  1  0
 10 33  1  0
 11 34  1  0
 11 35  1  0
 12 36  1  0
 12 37  1  0
 13 38  1  0
 13 39  1  0
 14 40  1  0
 14 41  1  0
 15 42  1  0
 15 43  1  0
 16 44  1  0
 16 45  1  0
M  END
$$$$
