
     RDKit          3D

 37 39  0  0  0  0  0  0  0  0999 V2000
    5.0844   -1.3110    1.9953 O   0  0  0  0  0  0  0  0  0  0  0  0
    3.9517   -0.8297    1.3428 C   0  0  0  0  0  0  0  0  0  0  0  0
    3.9186   -0.7339   -0.0545 C   0  0  0  0  0  0  0  0  0  0  0  0
    2.7764   -0.2503   -0.6995 C   0  0  0  0  0  0  0  0  0  0  0  0
    1.6497    0.1395    0.0460 C   0  0  0  0  0  0  0  0  0  0  0  0
    1.6945    0.0465    1.4503 C   0  0  0  0  0  0  0  0  0  0  0  0
    2.8380   -0.4378    2.0914 C   0  0  0  0  0  0  0  0  0  0  0  0
    0.4067    0.6728   -0.6566 C   0  0  0  0  0  0  0  0  0  0  0  0
    0.2804    2.1745   -0.3028 C   0  0  0  0  0  0  0  0  0  0  0  0
   -0.4437    2.9528   -1.3176 N   0  0  0  0  0  0  0  0  0  0  0  0
   -1.6973    2.3365   -1.7661 C   0  0  0  0  0  0  0  0  0  0  0  0
   -2.5295    1.7863   -0.6017 C   0  0  0  0  0  0  0  0  0  0  0  0
   -2.1713    0.3548   -0.2188 C   0  0  0  0  0  0  0  0  0  0  0  0
   -3.2104   -0.4917    0.2582 C   0  0  0  0  0  0  0  0  0  0  0  0
   -4.8177    0.1569    0.6201 Cl  0  0  0  0  0  0  0  0  0  0  0  0
   -2.9728   -1.8636    0.4660 C   0  0  0  0  0  0  0  0  0  0  0  0
   -3.9774   -2.7275    0.9108 O   0  0  0  0  0  0  0  0  0  0  0  0
   -1.7115   -2.3951    0.2158 C   0  0  0  0  0  0  0  0  0  0  0  0
   -1.4976   -3.7638    0.3756 O   0  0  0  0  0  0  0  0  0  0  0  0
   -0.6665   -1.5626   -0.1786 C   0  0  0  0  0  0  0  0  0  0  0  0
   -0.8403   -0.1688   -0.3157 C   0  0  0  0  0  0  0  0  0  0  0  0
    5.9076   -1.6027    1.4813 H   0  0  0  0  0  0  0  0  0  0  0  0
    4.7775   -1.0333   -0.6416 H   0  0  0  0  0  0  0  0  0  0  0  0
    2.7719   -0.1827   -1.7802 H   0  0  0  0  0  0  0  0  0  0  0  0
    0.8405    0.3447    2.0457 H   0  0  0  0  0  0  0  0  0  0  0  0
    2.8587   -0.5085    3.1715 H   0  0  0  0  0  0  0  0  0  0  0  0
    0.5625    0.5889   -1.7549 H   0  0  0  0  0  0  0  0  0  0  0  0
    1.2944    2.6255   -0.2052 H   0  0  0  0  0  0  0  0  0  0  0  0
   -0.1938    2.3038    0.6936 H   0  0  0  0  0  0  0  0  0  0  0  0
    0.1763    3.0663   -2.1541 H   0  0  0  0  0  0  0  0  0  0  0  0
   -2.2906    3.1229   -2.2816 H   0  0  0  0  0  0  0  0  0  0  0  0
   -1.5051    1.5425   -2.5226 H   0  0  0  0  0  0  0  0  0  0  0  0
   -3.5811    1.8248   -0.9543 H   0  0  0  0  0  0  0  0  0  0  0  0
   -2.4690    2.4508    0.2864 H   0  0  0  0  0  0  0  0  0  0  0  0
   -4.9233   -2.4278    1.1074 H   0  0  0  0  0  0  0  0  0  0  0  0
   -0.5909   -4.1841    0.2073 H   0  0  0  0  0  0  0  0  0  0  0  0
    0.3000   -2.0158   -0.3589 H   0  0  0  0  0  0  0  0  0  0  0  0
  1  2  1  0
  2  3  2  0
  3  4  1  0
  4  5  2  0
  5  6  1  0
  6  7  2  0
  5  8  1  0
  8  9  1  0
  9 10  1  0
 10 11  1  0
 11 12  1  0
 12 13  1  0
 13 14  2  0
 14 15  1  0
 14 16  1  0
 16 17  1  0
 16 18  2  0
 18 19  1  0
 18 20  1  0
 20 21  2  0
  7  2  1  0
 21  8  1  0
 21 13  1  0
  1 22  1  0
  3 23  1  0
  4 24  1  0
  6 25  1  0
  7 26  1  0
  8 27  1  0
  9 28  1  0
  9 29  1  0
 10 30  1  0
 11 31  1  0
 11 32  1  0
 12 33  1  0
 12 34  1  0
 17 35  1  0
 19 36  1  0
 20 37  1  0
M  END
$$$$
