
     RDKit          3D

 17 17  0  0  0  0  0  0  0  0999 V2000
   -0.7990    1.7901    0.8526 N   0  0  0  0  0  0  0  0  0  0  0  0
    0.0646    0.7821    0.3098 C   0  0  0  0  0  0  0  0  0  0  0  0
    1.4384    1.0566    0.2101 C   0  0  0  0  0  0  0  0  0  0  0  0
    2.3304    0.0755   -0.2245 C   0  0  0  0  0  0  0  0  0  0  0  0
    1.8622   -1.1929   -0.5625 C   0  0  0  0  0  0  0  0  0  0  0  0
    0.4980   -1.4790   -0.4856 C   0  0  0  0  0  0  0  0  0  0  0  0
   -0.4203   -0.4967   -0.0690 C   0  0  0  0  0  0  0  0  0  0  0  0
   -1.8637   -0.8250   -0.0871 C   0  0  0  0  0  0  0  0  0  0  0  0
   -2.8068    0.1442   -0.4169 O   0  0  0  0  0  0  0  0  0  0  0  0
   -2.2455   -2.0037    0.1463 O   0  0  0  0  0  0  0  0  0  0  0  0
   -0.4445    2.7600    1.0100 H   0  0  0  0  0  0  0  0  0  0  0  0
   -1.7419    1.5618    1.2344 H   0  0  0  0  0  0  0  0  0  0  0  0
    1.8218    2.0291    0.4929 H   0  0  0  0  0  0  0  0  0  0  0  0
    3.3881    0.2962   -0.2890 H   0  0  0  0  0  0  0  0  0  0  0  0
    2.5565   -1.9541   -0.8946 H   0  0  0  0  0  0  0  0  0  0  0  0
    0.1558   -2.4642   -0.7786 H   0  0  0  0  0  0  0  0  0  0  0  0
   -3.7942   -0.0799   -0.4482 H   0  0  0  0  0  0  0  0  0  0  0  0
  1  2  1  0
  2  3  2  0
  3  4  1  0
  4  5  2  0
  5  6  1  0
  6  7  2  0
  7  8  1  0
  8  9  1  0
  8 10  2  0
  7  2  1  0
  1 11  1  0
  1 12  1  0
  3 13  1  0
  4 14  1  0
  5 15  1  0
  6 16  1  0
  9 17  1  0
M  END
$$$$
