
     RDKit          3D

 25 26  0  0  0  0  0  0  0  0999 V2000
    3.5887   -0.3186   -2.3388 N   0  0  0  0  0  0  0  0  0  0  0  0
    2.6385   -0.0387   -1.3075 C   0  0  0  0  0  0  0  0  0  0  0  0
    1.9930   -1.0883   -0.6386 C   0  0  0  0  0  0  0  0  0  0  0  0
    1.0638   -0.8143    0.3694 C   0  0  0  0  0  0  0  0  0  0  0  0
    0.7684    0.5112    0.7150 C   0  0  0  0  0  0  0  0  0  0  0  0
    1.4170    1.5612    0.0506 C   0  0  0  0  0  0  0  0  0  0  0  0
    2.3470    1.2874   -0.9571 C   0  0  0  0  0  0  0  0  0  0  0  0
   -0.4087    0.8475    1.9801 S   0  0  0  0  0  6  0  0  0  0  0  0
   -0.9620    2.2371    1.8293 O   0  0  0  0  0  0  0  0  0  0  0  0
    0.2627    0.7275    3.3188 O   0  0  0  0  0  0  0  0  0  0  0  0
   -1.7129   -0.2881    1.8866 N   0  0  0  0  0  0  0  0  0  0  0  0
   -2.4942   -0.4332    0.6993 C   0  0  0  0  0  0  0  0  0  0  0  0
   -2.3057    0.3025   -0.4174 N   0  0  0  0  0  0  0  0  0  0  0  0
   -3.1795   -0.0482   -1.3979 C   0  0  0  0  0  0  0  0  0  0  0  0
   -4.0661   -1.0660   -1.0625 C   0  0  0  0  0  0  0  0  0  0  0  0
   -3.7421   -1.5424    0.5189 S   0  0  0  0  0  0  0  0  0  0  0  0
    4.0750    0.4565   -2.8424 H   0  0  0  0  0  0  0  0  0  0  0  0
    3.8127   -1.3030   -2.6065 H   0  0  0  0  0  0  0  0  0  0  0  0
    2.2099   -2.1169   -0.8979 H   0  0  0  0  0  0  0  0  0  0  0  0
    0.5738   -1.6346    0.8783 H   0  0  0  0  0  0  0  0  0  0  0  0
    1.2047    2.5902    0.3106 H   0  0  0  0  0  0  0  0  0  0  0  0
    2.8399    2.1073   -1.4642 H   0  0  0  0  0  0  0  0  0  0  0  0
   -1.9165   -0.8921    2.7134 H   0  0  0  0  0  0  0  0  0  0  0  0
   -3.1778    0.4342   -2.3659 H   0  0  0  0  0  0  0  0  0  0  0  0
   -4.8296   -1.4782   -1.7081 H   0  0  0  0  0  0  0  0  0  0  0  0
  1  2  1  0
  2  3  2  0
  3  4  1  0
  4  5  2  0
  5  6  1  0
  6  7  2  0
  5  8  1  0
  8  9  2  0
  8 10  2  0
  8 11  1  0
 11 12  1  0
 12 13  2  0
 13 14  1  0
 14 15  2  0
 15 16  1  0
  7  2  1  0
 16 12  1  0
  1 17  1  0
  1 18  1  0
  3 19  1  0
  4 20  1  0
  6 21  1  0
  7 22  1  0
 11 23  1  0
 14 24  1  0
 15 25  1  0
M  END
$$$$
