
     RDKit          3D

 79 84  0  0  0  0  0  0  0  0999 V2000
   -4.6356    1.0061    5.4632 C   0  0  0  0  0  0  0  0  0  0  0  0
   -3.8054   -0.2351    5.1790 C   0  0  0  0  0  0  0  0  0  0  0  0
   -2.8126    0.0713    4.2077 O   0  0  0  0  0  0  0  0  0  0  0  0
   -1.9194   -0.8851    3.7176 C   0  0  0  0  0  0  0  0  0  0  0  0
   -1.9105   -2.1747    4.1349 N   0  0  0  0  0  0  0  0  0  0  0  0
   -0.9536   -2.7266    3.3707 C   0  0  0  0  0  0  0  0  0  0  0  0
   -0.3893   -1.7948    2.5341 C   0  0  0  0  0  0  0  0  0  0  0  0
   -1.0130   -0.6099    2.7450 N   0  0  0  0  0  0  0  0  0  0  0  0
   -1.0254    0.6183    1.9411 C   0  0  0  0  0  0  0  0  0  0  0  0
   -2.1634    0.5822    0.9557 C   0  0  0  0  0  0  0  0  0  0  0  0
   -3.3395    1.3091    1.2002 C   0  0  0  0  0  0  0  0  0  0  0  0
   -4.4058    1.2497    0.2991 C   0  0  0  0  0  0  0  0  0  0  0  0
   -4.3101    0.4651   -0.8613 C   0  0  0  0  0  0  0  0  0  0  0  0
   -3.1442   -0.2801   -1.0934 C   0  0  0  0  0  0  0  0  0  0  0  0
   -2.0789   -0.2216   -0.1913 C   0  0  0  0  0  0  0  0  0  0  0  0
   -5.4437    0.3916   -1.8107 C   0  0  0  0  0  0  0  0  0  0  0  0
   -6.0323   -0.8630   -2.0471 C   0  0  0  0  0  0  0  0  0  0  0  0
   -7.1517   -0.9794   -2.8713 C   0  0  0  0  0  0  0  0  0  0  0  0
   -7.6985    0.1538   -3.4702 C   0  0  0  0  0  0  0  0  0  0  0  0
   -7.1204    1.4067   -3.2584 C   0  0  0  0  0  0  0  0  0  0  0  0
   -5.9842    1.5455   -2.4398 C   0  0  0  0  0  0  0  0  0  0  0  0
   -5.3580    2.8841   -2.3094 C   0  0  0  0  0  0  0  0  0  0  0  0
   -4.0406    3.1049   -2.1346 N   0  0  0  0  0  0  0  0  0  0  0  0
   -3.9126    4.4239   -2.1024 N   0  0  0  0  0  0  0  0  0  0  0  0
   -5.0969    4.9963   -2.2560 N   0  0  0  0  0  0  0  0  0  0  0  0
   -6.0130    4.0550   -2.3917 N   0  0  0  0  0  0  0  0  0  0  0  0
    0.6279   -2.1625    1.6233 C   0  0  0  0  0  0  0  0  0  0  0  0
    0.9815   -3.5277    1.5606 C   0  0  0  0  0  0  0  0  0  0  0  0
    0.3746   -4.4722    2.4118 C   0  0  0  0  0  0  0  0  0  0  0  0
   -0.5962   -4.0707    3.3399 C   0  0  0  0  0  0  0  0  0  0  0  0
    1.4149   -1.2062    0.8372 C   0  0  0  0  0  0  0  0  0  0  0  0
    2.0590   -0.2954    1.4261 O   0  0  0  0  0  0  0  0  0  0  0  0
    1.5103   -1.3736   -0.5503 O   0  0  0  0  0  0  0  0  0  0  0  0
    2.2069   -0.4820   -1.4221 C   0  0  0  0  0  0  0  0  0  0  0  0
    1.4698    0.8564   -1.5178 C   0  0  0  0  0  0  0  0  0  0  0  0
    3.5452   -0.2964   -0.9576 O   0  0  0  0  0  0  0  0  0  0  0  0
    4.5708    0.2363   -1.7444 C   0  0  0  0  0  0  0  0  0  0  0  0
    4.3626    0.5412   -2.9516 O   0  0  0  0  0  0  0  0  0  0  0  0
    5.8331    0.4211   -1.1722 O   0  0  0  0  0  0  0  0  0  0  0  0
    6.9626    0.9200   -1.8933 C   0  0  0  0  0  0  0  0  0  0  0  0
    7.5362   -0.1691   -2.8370 C   0  0  0  0  0  0  0  0  0  0  0  0
    8.6910   -0.9834   -2.2190 C   0  0  0  0  0  0  0  0  0  0  0  0
    8.5365   -1.1206   -0.7019 C   0  0  0  0  0  0  0  0  0  0  0  0
    8.5441    0.2528   -0.0012 C   0  0  0  0  0  0  0  0  0  0  0  0
    8.0220    1.4000   -0.8910 C   0  0  0  0  0  0  0  0  0  0  0  0
   -3.9846    1.8162    5.8549 H   0  0  0  0  0  0  0  0  0  0  0  0
   -5.4150    0.7715    6.2185 H   0  0  0  0  0  0  0  0  0  0  0  0
   -5.1287    1.3535    4.5304 H   0  0  0  0  0  0  0  0  0  0  0  0
   -3.3191   -0.5777    6.1179 H   0  0  0  0  0  0  0  0  0  0  0  0
   -4.4697   -1.0400    4.7959 H   0  0  0  0  0  0  0  0  0  0  0  0
   -1.1282    1.4948    2.6176 H   0  0  0  0  0  0  0  0  0  0  0  0
   -0.0810    0.7769    1.4012 H   0  0  0  0  0  0  0  0  0  0  0  0
   -3.4343    1.9190    2.0900 H   0  0  0  0  0  0  0  0  0  0  0  0
   -5.3075    1.8128    0.5065 H   0  0  0  0  0  0  0  0  0  0  0  0
   -3.0580   -0.9015   -1.9764 H   0  0  0  0  0  0  0  0  0  0  0  0
   -1.1910   -0.8067   -0.3864 H   0  0  0  0  0  0  0  0  0  0  0  0
   -5.6356   -1.7525   -1.5722 H   0  0  0  0  0  0  0  0  0  0  0  0
   -7.6006   -1.9497   -3.0400 H   0  0  0  0  0  0  0  0  0  0  0  0
   -8.5670    0.0604   -4.1093 H   0  0  0  0  0  0  0  0  0  0  0  0
   -7.5477    2.2641   -3.7625 H   0  0  0  0  0  0  0  0  0  0  0  0
   -7.0351    4.2238   -2.5190 H   0  0  0  0  0  0  0  0  0  0  0  0
    1.7560   -3.8587    0.8792 H   0  0  0  0  0  0  0  0  0  0  0  0
    0.6685   -5.5124    2.3577 H   0  0  0  0  0  0  0  0  0  0  0  0
   -1.0688   -4.7898    3.9965 H   0  0  0  0  0  0  0  0  0  0  0  0
    2.2271   -0.9494   -2.4307 H   0  0  0  0  0  0  0  0  0  0  0  0
    1.9416    1.5005   -2.2885 H   0  0  0  0  0  0  0  0  0  0  0  0
    1.4977    1.3902   -0.5455 H   0  0  0  0  0  0  0  0  0  0  0  0
    0.4115    0.6844   -1.8059 H   0  0  0  0  0  0  0  0  0  0  0  0
    6.6454    1.7981   -2.4997 H   0  0  0  0  0  0  0  0  0  0  0  0
    7.9093    0.3147   -3.7659 H   0  0  0  0  0  0  0  0  0  0  0  0
    6.7264   -0.8656   -3.1435 H   0  0  0  0  0  0  0  0  0  0  0  0
    9.6595   -0.4820   -2.4390 H   0  0  0  0  0  0  0  0  0  0  0  0
    8.7235   -1.9930   -2.6829 H   0  0  0  0  0  0  0  0  0  0  0  0
    9.3613   -1.7472   -0.2992 H   0  0  0  0  0  0  0  0  0  0  0  0
    7.5805   -1.6457   -0.4832 H   0  0  0  0  0  0  0  0  0  0  0  0
    7.9217    0.1866    0.9178 H   0  0  0  0  0  0  0  0  0  0  0  0
    9.5801    0.4972    0.3199 H   0  0  0  0  0  0  0  0  0  0  0  0
    8.8725    1.8441   -1.4544 H   0  0  0  0  0  0  0  0  0  0  0  0
    7.5954    2.2019   -0.2500 H   0  0  0  0  0  0  0  0  0  0  0  0
  1  2  1  0
  2  3  1  0
  3  4  1  0
  4  5  2  0
  5  6  1  0
  6  7  2  0
  7  8  1  0
  8  9  1  0
  9 10  1  0
 10 11  2  0
 11 12  1  0
 12 13  2  0
 13 14  1  0
 14 15  2  0
 13 16  1  0
 16 17  2  0
 17 18  1  0
 18 19  2  0
 19 20  1  0
 20 21  2  0
 21 22  1  0
 22 23  2  0
 23 24  1  0
 24 25  2  0
 25 26  1  0
  7 27  1  0
 27 28  2  0
 28 29  1  0
 29 30  2  0
 27 31  1  0
 31 32  2  0
 31 33  1  0
 33 34  1  0
 34 35  1  0
 34 36  1  0
 36 37  1  0
 37 38  2  0
 37 39  1  0
 39 40  1  0
 40 41  1  0
 41 42  1  0
 42 43  1  0
 43 44  1  0
 44 45  1  0
  8  4  1  0
 15 10  1  0
 21 16  1  0
 26 22  1  0
 45 40  1  0
 30  6  1  0
  1 46  1  0
  1 47  1  0
  1 48  1  0
  2 49  1  0
  2 50  1  0
  9 51  1  0
  9 52  1  0
 11 53  1  0
 12 54  1  0
 14 55  1  0
 15 56  1  0
 17 57  1  0
 18 58  1  0
 19 59  1  0
 20 60  1  0
 26 61  1  0
 28 62  1  0
 29 63  1  0
 30 64  1  0
 34 65  1  0
 35 66  1  0
 35 67  1  0
 35 68  1  0
 40 69  1  0
 41 70  1  0
 41 71  1  0
 42 72  1  0
 42 73  1  0
 43 74  1  0
 43 75  1  0
 44 76  1  0
 44 77  1  0
 45 78  1  0
 45 79  1  0
M  END
$$$$
