
     RDKit          3D

 60 64  0  0  0  0  0  0  0  0999 V2000
    2.0767    3.3139    0.7207 C   0  0  0  0  0  0  0  0  0  0  0  0
    1.3180    2.0516    0.6398 N   0  0  0  0  0  0  0  0  0  0  0  0
    0.3845    1.7661    1.5987 C   0  0  0  0  0  0  0  0  0  0  0  0
    0.2062    2.5669    2.5604 O   0  0  0  0  0  0  0  0  0  0  0  0
   -0.3762    0.5837    1.5373 C   0  0  0  0  0  0  0  0  0  0  0  0
   -1.2063    0.2063    2.7473 C   0  0  0  0  0  0  0  0  0  0  0  0
   -0.2534   -0.2603    0.3945 C   0  0  0  0  0  0  0  0  0  0  0  0
   -1.1464   -1.2763    0.1072 N   0  0  0  0  0  0  0  0  0  0  0  0
   -0.8369   -2.2191   -0.8402 C   0  0  0  0  0  0  0  0  0  0  0  0
   -1.6586   -3.1464   -1.0977 O   0  0  0  0  0  0  0  0  0  0  0  0
    0.3371   -2.1519   -1.5364 N   0  0  0  0  0  0  0  0  0  0  0  0
    0.6598   -3.1946   -2.5302 C   0  0  0  0  0  0  0  0  0  0  0  0
    0.7577   -4.6056   -1.9581 C   0  0  0  0  0  0  0  0  0  0  0  0
    2.0205   -3.8561   -2.3333 C   0  0  0  0  0  0  0  0  0  0  0  0
    1.1267   -1.0413   -1.4372 C   0  0  0  0  0  0  0  0  0  0  0  0
    2.1157   -0.9183   -2.2125 O   0  0  0  0  0  0  0  0  0  0  0  0
    0.8442   -0.0484   -0.4716 C   0  0  0  0  0  0  0  0  0  0  0  0
    1.6229    1.1316   -0.3312 C   0  0  0  0  0  0  0  0  0  0  0  0
    2.7230    1.3856   -1.2211 N   0  0  0  0  0  0  0  0  0  0  0  0
    4.0999    1.2292   -0.8292 C   0  0  0  0  0  0  0  0  0  0  0  0
    4.4461    0.6542    0.4096 C   0  0  0  0  0  0  0  0  0  0  0  0
    5.7882    0.5052    0.7698 C   0  0  0  0  0  0  0  0  0  0  0  0
    6.7986    0.9229   -0.0999 C   0  0  0  0  0  0  0  0  0  0  0  0
    8.8227    0.6958    0.4469 I   0  0  0  0  0  0  0  0  0  0  0  0
    6.4662    1.4895   -1.3333 C   0  0  0  0  0  0  0  0  0  0  0  0
    5.1250    1.6415   -1.6996 C   0  0  0  0  0  0  0  0  0  0  0  0
    4.8266    2.1962   -2.9015 F   0  0  0  0  0  0  0  0  0  0  0  0
   -2.5020   -1.2600    0.6101 C   0  0  0  0  0  0  0  0  0  0  0  0
   -3.3574   -0.1949    0.2834 C   0  0  0  0  0  0  0  0  0  0  0  0
   -4.6788   -0.1664    0.7635 C   0  0  0  0  0  0  0  0  0  0  0  0
   -5.5667    0.9190    0.4470 N   0  0  0  0  0  0  0  0  0  0  0  0
   -5.1469    2.2859    0.3146 C   0  0  0  0  0  0  0  0  0  0  0  0
   -6.1038    3.3108   -0.2004 C   0  0  0  0  0  0  0  0  0  0  0  0
   -4.0045    2.6489    0.7057 O   0  0  0  0  0  0  0  0  0  0  0  0
   -5.1534   -1.2450    1.5244 C   0  0  0  0  0  0  0  0  0  0  0  0
   -4.3124   -2.3167    1.8352 C   0  0  0  0  0  0  0  0  0  0  0  0
   -2.9919   -2.3263    1.3820 C   0  0  0  0  0  0  0  0  0  0  0  0
    2.3593    3.6799   -0.2891 H   0  0  0  0  0  0  0  0  0  0  0  0
    2.9935    3.1620    1.3283 H   0  0  0  0  0  0  0  0  0  0  0  0
    1.4691    4.1245    1.1768 H   0  0  0  0  0  0  0  0  0  0  0  0
   -1.2175   -0.8930    2.8898 H   0  0  0  0  0  0  0  0  0  0  0  0
   -2.2367    0.6051    2.6518 H   0  0  0  0  0  0  0  0  0  0  0  0
   -0.7674    0.6150    3.6818 H   0  0  0  0  0  0  0  0  0  0  0  0
    0.2851   -3.0833   -3.5699 H   0  0  0  0  0  0  0  0  0  0  0  0
    0.4850   -5.4117   -2.6713 H   0  0  0  0  0  0  0  0  0  0  0  0
    0.6127   -4.7032   -0.8608 H   0  0  0  0  0  0  0  0  0  0  0  0
    2.6098   -3.5173   -1.4543 H   0  0  0  0  0  0  0  0  0  0  0  0
    2.4965   -4.2174   -3.2690 H   0  0  0  0  0  0  0  0  0  0  0  0
    2.4930    1.6949   -2.1924 H   0  0  0  0  0  0  0  0  0  0  0  0
    3.6833    0.3162    1.0986 H   0  0  0  0  0  0  0  0  0  0  0  0
    6.0420    0.0630    1.7245 H   0  0  0  0  0  0  0  0  0  0  0  0
    7.2479    1.8123   -2.0088 H   0  0  0  0  0  0  0  0  0  0  0  0
   -2.9888    0.5973   -0.3549 H   0  0  0  0  0  0  0  0  0  0  0  0
   -6.5914    0.7185    0.3971 H   0  0  0  0  0  0  0  0  0  0  0  0
   -5.5526    4.1937   -0.5881 H   0  0  0  0  0  0  0  0  0  0  0  0
   -6.7773    3.6329    0.6207 H   0  0  0  0  0  0  0  0  0  0  0  0
   -6.7111    2.8810   -1.0244 H   0  0  0  0  0  0  0  0  0  0  0  0
   -6.1741   -1.2489    1.8856 H   0  0  0  0  0  0  0  0  0  0  0  0
   -4.6850   -3.1408    2.4297 H   0  0  0  0  0  0  0  0  0  0  0  0
   -2.3460   -3.1580    1.6334 H   0  0  0  0  0  0  0  0  0  0  0  0
  1  2  1  0
  2  3  1  0
  3  4  2  0
  3  5  1  0
  5  6  1  0
  5  7  2  0
  7  8  1  0
  8  9  1  0
  9 10  2  0
  9 11  1  0
 11 12  1  0
 12 13  1  0
 13 14  1  0
 11 15  1  0
 15 16  2  0
 15 17  1  0
 17 18  2  0
 18 19  1  0
 19 20  1  0
 20 21  2  0
 21 22  1  0
 22 23  2  0
 23 24  1  0
 23 25  1  0
 25 26  2  0
 26 27  1  0
  8 28  1  0
 28 29  2  0
 29 30  1  0
 30 31  1  0
 31 32  1  0
 32 33  1  0
 32 34  2  0
 30 35  2  0
 35 36  1  0
 36 37  2  0
 18  2  1  0
 26 20  1  0
 37 28  1  0
 17  7  1  0
 14 12  1  0
  1 38  1  0
  1 39  1  0
  1 40  1  0
  6 41  1  0
  6 42  1  0
  6 43  1  0
 12 44  1  0
 13 45  1  0
 13 46  1  0
 14 47  1  0
 14 48  1  0
 19 49  1  0
 21 50  1  0
 22 51  1  0
 25 52  1  0
 29 53  1  0
 31 54  1  0
 33 55  1  0
 33 56  1  0
 33 57  1  0
 35 58  1  0
 36 59  1  0
 37 60  1  0
M  END
$$$$
