
     RDKit          3D

 57 57  0  0  0  0  0  0  0  0999 V2000
   -6.2979   -1.3411   -3.4761 N   0  0  0  0  0  0  0  0  0  0  0  0
   -5.0073   -1.7511   -4.0367 C   0  0  1  0  0  0  0  0  0  0  0  0
   -3.8246   -1.3633   -3.1220 C   0  0  0  0  0  0  0  0  0  0  0  0
   -3.6576    0.1561   -2.9920 C   0  0  0  0  0  0  0  0  0  0  0  0
   -2.4288    0.4798   -2.1970 C   0  0  0  0  0  0  0  0  0  0  0  0
   -1.3602    0.7743   -2.7985 O   0  0  0  0  0  0  0  0  0  0  0  0
   -2.4608    0.4097   -0.7639 N   0  0  0  0  0  0  0  0  0  0  0  0
   -1.2894    0.7218    0.0605 C   0  0  1  0  0  0  0  0  0  0  0  0
   -1.1442    2.2460    0.2064 C   0  0  0  0  0  0  0  0  0  0  0  0
    0.3721    2.6896    1.1331 S   0  0  0  0  0  0  0  0  0  0  0  0
    1.5061    2.6939   -0.3039 C   0  0  0  0  0  0  0  0  0  0  0  0
    1.3830    3.9283   -0.9526 O   0  0  0  0  0  0  0  0  0  0  0  0
    2.8356    2.5511    0.1590 O   0  0  0  0  0  0  0  0  0  0  0  0
    3.1647    1.1836    0.2954 C   0  0  0  0  0  0  0  0  0  0  0  0
    4.4690    1.0689    1.0287 C   0  0  0  0  0  0  0  0  0  0  0  0
    5.6819    1.0828    0.3248 C   0  0  0  0  0  0  0  0  0  0  0  0
    6.8978    1.0127    1.0112 C   0  0  0  0  0  0  0  0  0  0  0  0
    6.9222    0.9402    2.4150 C   0  0  0  0  0  0  0  0  0  0  0  0
    5.7031    0.9446    3.1176 C   0  0  0  0  0  0  0  0  0  0  0  0
    4.4881    1.0148    2.4300 C   0  0  0  0  0  0  0  0  0  0  0  0
    8.1757    0.8684    3.1188 N   0  0  0  0  0  4  0  0  0  0  0  0
    9.3662    0.8663    2.4284 O   0  0  0  0  0  1  0  0  0  0  0  0
    8.2036    0.8055    4.3656 O   0  0  0  0  0  0  0  0  0  0  0  0
   -1.4142    0.0583    1.4104 C   0  0  0  0  0  0  0  0  0  0  0  0
   -2.4072    0.3178    2.1446 O   0  0  0  0  0  0  0  0  0  0  0  0
   -0.3980   -0.8468    1.8679 N   0  0  0  0  0  0  0  0  0  0  0  0
   -0.4641   -1.5034    3.1704 C   0  0  0  0  0  0  0  0  0  0  0  0
   -1.5061   -2.5751    3.1557 C   0  0  0  0  0  0  0  0  0  0  0  0
   -2.7320   -2.3610    3.7776 O   0  0  0  0  0  0  0  0  0  0  0  0
   -1.2846   -3.6607    2.5556 O   0  0  0  0  0  0  0  0  0  0  0  0
   -5.0169   -3.2361   -4.2551 C   0  0  0  0  0  0  0  0  0  0  0  0
   -5.3198   -4.0940   -3.2014 O   0  0  0  0  0  0  0  0  0  0  0  0
   -4.7319   -3.7100   -5.3876 O   0  0  0  0  0  0  0  0  0  0  0  0
   -6.3335   -1.5718   -2.4560 H   0  0  0  0  0  0  0  0  0  0  0  0
   -6.4011   -0.3055   -3.5740 H   0  0  0  0  0  0  0  0  0  0  0  0
   -4.8735   -1.2542   -5.0247 H   0  0  0  0  0  0  0  0  0  0  0  0
   -3.9631   -1.8098   -2.1121 H   0  0  0  0  0  0  0  0  0  0  0  0
   -2.8889   -1.7855   -3.5534 H   0  0  0  0  0  0  0  0  0  0  0  0
   -3.5778    0.6159   -4.0014 H   0  0  0  0  0  0  0  0  0  0  0  0
   -4.5386    0.5973   -2.4797 H   0  0  0  0  0  0  0  0  0  0  0  0
   -3.3679    0.1697   -0.3022 H   0  0  0  0  0  0  0  0  0  0  0  0
   -0.3859    0.3177   -0.4437 H   0  0  0  0  0  0  0  0  0  0  0  0
   -1.1321    2.7302   -0.7933 H   0  0  0  0  0  0  0  0  0  0  0  0
   -2.0200    2.6529    0.7558 H   0  0  0  0  0  0  0  0  0  0  0  0
    1.2244    1.8890   -1.0258 H   0  0  0  0  0  0  0  0  0  0  0  0
    1.9392    3.8701   -1.7728 H   0  0  0  0  0  0  0  0  0  0  0  0
    3.2611    0.7128   -0.7092 H   0  0  0  0  0  0  0  0  0  0  0  0
    2.3828    0.6263    0.8617 H   0  0  0  0  0  0  0  0  0  0  0  0
    5.6869    1.1479   -0.7564 H   0  0  0  0  0  0  0  0  0  0  0  0
    7.8188    1.0190    0.4427 H   0  0  0  0  0  0  0  0  0  0  0  0
    5.6889    0.8976    4.1989 H   0  0  0  0  0  0  0  0  0  0  0  0
    3.5614    1.0268    2.9909 H   0  0  0  0  0  0  0  0  0  0  0  0
    0.4353   -1.0296    1.2647 H   0  0  0  0  0  0  0  0  0  0  0  0
    0.5212   -1.9614    3.4044 H   0  0  0  0  0  0  0  0  0  0  0  0
   -0.6871   -0.7558    3.9619 H   0  0  0  0  0  0  0  0  0  0  0  0
   -3.4525   -3.0730    3.7644 H   0  0  0  0  0  0  0  0  0  0  0  0
   -5.3217   -5.0983   -3.3332 H   0  0  0  0  0  0  0  0  0  0  0  0
  1  2  1  0
  2  3  1  0
  3  4  1  0
  4  5  1  0
  5  6  2  0
  5  7  1  0
  7  8  1  0
  8  9  1  0
  9 10  1  0
 10 11  1  0
 11 12  1  0
 11 13  1  0
 13 14  1  0
 14 15  1  0
 15 16  2  0
 16 17  1  0
 17 18  2  0
 18 19  1  0
 19 20  2  0
 18 21  1  0
 21 22  1  0
 21 23  2  0
  8 24  1  0
 24 25  2  0
 24 26  1  0
 26 27  1  0
 27 28  1  0
 28 29  1  0
 28 30  2  0
  2 31  1  0
 31 32  1  0
 31 33  2  0
 20 15  1  0
  1 34  1  0
  1 35  1  0
  2 36  1  6
  3 37  1  0
  3 38  1  0
  4 39  1  0
  4 40  1  0
  7 41  1  0
  8 42  1  6
  9 43  1  0
  9 44  1  0
 11 45  1  0
 12 46  1  0
 14 47  1  0
 14 48  1  0
 16 49  1  0
 17 50  1  0
 19 51  1  0
 20 52  1  0
 26 53  1  0
 27 54  1  0
 27 55  1  0
 29 56  1  0
 32 57  1  0
M  CHG  2  21   1  22  -1
M  END
$$$$
