
     RDKit          3D

 37 39  0  0  0  0  0  0  0  0999 V2000
   -6.2134    1.3377   -0.5500 C   0  0  0  0  0  0  0  0  0  0  0  0
   -6.3471   -0.0664   -0.9315 N   0  0  0  0  0  0  0  0  0  0  0  0
   -5.5188   -1.0697    0.2203 S   0  0  0  0  0  6  0  0  0  0  0  0
   -6.1162   -0.8729    1.5863 O   0  0  0  0  0  0  0  0  0  0  0  0
   -5.6892   -2.5114   -0.1684 O   0  0  0  0  0  0  0  0  0  0  0  0
   -3.7993   -0.6826    0.2495 C   0  0  0  0  0  0  0  0  0  0  0  0
   -3.2606    0.0914    1.2849 C   0  0  0  0  0  0  0  0  0  0  0  0
   -1.8990    0.4085    1.2933 C   0  0  0  0  0  0  0  0  0  0  0  0
   -1.0553   -0.0425    0.2609 C   0  0  0  0  0  0  0  0  0  0  0  0
   -1.6054   -0.8145   -0.7770 C   0  0  0  0  0  0  0  0  0  0  0  0
   -2.9671   -1.1296   -0.7829 C   0  0  0  0  0  0  0  0  0  0  0  0
    0.3908    0.2791    0.2451 C   0  0  0  0  0  0  0  0  0  0  0  0
    1.0897    1.0342    1.1734 C   0  0  0  0  0  0  0  0  0  0  0  0
    2.3959    1.0610    0.7350 C   0  0  0  0  0  0  0  0  0  0  0  0
    2.4208    0.3135   -0.4296 C   0  0  0  0  0  0  0  0  0  0  0  0
    1.2134   -0.1271   -0.6966 O   0  0  0  0  0  0  0  0  0  0  0  0
    3.5722    0.0612   -1.3161 C   0  0  0  0  0  0  0  0  0  0  0  0
    4.8469   -0.0573   -0.9113 C   0  0  0  0  0  0  0  0  0  0  0  0
    5.3941   -0.0824    0.8095 S   0  0  0  0  0  0  0  0  0  0  0  0
    7.0474   -0.4623    0.2138 C   0  0  0  0  0  0  0  0  0  0  0  0
    8.0473   -0.6516    1.0106 N   0  0  0  0  0  0  0  0  0  0  0  0
    7.1935   -0.5465   -1.1959 N   0  0  0  0  0  0  0  0  0  0  0  0
    5.9513   -0.3226   -1.8346 C   0  0  0  0  0  0  0  0  0  0  0  0
    5.8283   -0.3580   -3.0883 O   0  0  0  0  0  0  0  0  0  0  0  0
   -6.7625    1.9685   -1.2799 H   0  0  0  0  0  0  0  0  0  0  0  0
   -6.6563    1.5102    0.4539 H   0  0  0  0  0  0  0  0  0  0  0  0
   -5.1466    1.6506   -0.5503 H   0  0  0  0  0  0  0  0  0  0  0  0
   -5.8676   -0.1942   -1.8521 H   0  0  0  0  0  0  0  0  0  0  0  0
   -3.8932    0.4554    2.0842 H   0  0  0  0  0  0  0  0  0  0  0  0
   -1.5159    1.0067    2.1080 H   0  0  0  0  0  0  0  0  0  0  0  0
   -0.9829   -1.1737   -1.5871 H   0  0  0  0  0  0  0  0  0  0  0  0
   -3.3731   -1.7200   -1.5946 H   0  0  0  0  0  0  0  0  0  0  0  0
    0.7065    1.5278    2.0554 H   0  0  0  0  0  0  0  0  0  0  0  0
    3.2099    1.6040    1.1942 H   0  0  0  0  0  0  0  0  0  0  0  0
    3.3447   -0.0785   -2.3659 H   0  0  0  0  0  0  0  0  0  0  0  0
    7.9289   -0.5885    2.0460 H   0  0  0  0  0  0  0  0  0  0  0  0
    8.0880   -0.7576   -1.6921 H   0  0  0  0  0  0  0  0  0  0  0  0
  1  2  1  0
  2  3  1  0
  3  4  2  0
  3  5  2  0
  3  6  1  0
  6  7  2  0
  7  8  1  0
  8  9  2  0
  9 10  1  0
 10 11  2  0
  9 12  1  0
 12 13  2  0
 13 14  1  0
 14 15  2  0
 15 16  1  0
 15 17  1  0
 17 18  2  0
 18 19  1  0
 19 20  1  0
 20 21  2  3
 20 22  1  0
 22 23  1  0
 23 24  2  0
 11  6  1  0
 16 12  1  0
 23 18  1  0
  1 25  1  0
  1 26  1  0
  1 27  1  0
  2 28  1  0
  7 29  1  0
  8 30  1  0
 10 31  1  0
 11 32  1  0
 13 33  1  0
 14 34  1  0
 17 35  1  0
 21 36  1  0
 22 37  1  0
M  END
$$$$
