
     RDKit          3D

 58 62  0  0  0  0  0  0  0  0999 V2000
    0.4328   -0.4404   -2.5001 C   0  0  0  0  0  0  0  0  0  0  0  0
    0.7428   -0.0706   -1.1608 O   0  0  0  0  0  0  0  0  0  0  0  0
   -0.2090    0.2633   -0.1836 C   0  0  0  0  0  0  0  0  0  0  0  0
    0.2506    0.6088    1.0955 C   0  0  0  0  0  0  0  0  0  0  0  0
    1.6345    0.6109    1.3231 O   0  0  0  0  0  0  0  0  0  0  0  0
    2.2546    0.9066    2.5739 C   0  0  0  0  0  0  0  0  0  0  0  0
    3.7834    0.8018    2.4504 C   0  0  1  0  0  0  0  0  0  0  0  0
    4.2451   -0.6078    2.0619 C   0  0  0  0  0  0  0  0  0  0  0  0
    5.3723   -0.4269    1.0410 C   0  0  1  0  0  0  0  0  0  0  0  0
    5.2905   -1.4097   -0.1161 C   0  0  0  0  0  0  0  0  0  0  0  0
    4.3406   -0.8388   -1.0763 N   0  0  0  0  0  0  0  0  0  0  0  0
    4.6451   -1.2564   -2.4526 C   0  0  0  0  0  0  0  0  0  0  0  0
    4.4026    0.6232   -0.9131 C   0  0  0  0  0  0  0  0  0  0  0  0
    5.1490    0.9215    0.3989 C   0  0  1  0  0  0  0  0  0  0  0  0
    4.3557    1.7654    1.4007 C   0  0  0  0  0  0  0  0  0  0  0  0
   -0.6726    0.9348    2.1050 C   0  0  0  0  0  0  0  0  0  0  0  0
   -2.0442    0.9254    1.8394 C   0  0  0  0  0  0  0  0  0  0  0  0
   -2.9229    1.2246    2.8305 N   0  0  0  0  0  0  0  0  0  0  0  0
   -4.2598    1.2176    2.6055 C   0  0  0  0  0  0  0  0  0  0  0  0
   -4.7411    0.9182    1.3732 N   0  0  0  0  0  0  0  0  0  0  0  0
   -3.9140    0.6079    0.3374 C   0  0  0  0  0  0  0  0  0  0  0  0
   -4.4803    0.3536   -0.9602 N   0  0  0  0  0  0  0  0  0  0  0  0
   -5.7737   -0.2480   -1.1508 C   0  0  0  0  0  0  0  0  0  0  0  0
   -6.2796   -1.1829   -0.2306 C   0  0  0  0  0  0  0  0  0  0  0  0
   -7.5267   -1.7758   -0.4383 C   0  0  0  0  0  0  0  0  0  0  0  0
   -8.2817   -1.4543   -1.5699 C   0  0  0  0  0  0  0  0  0  0  0  0
   -9.8470   -2.2240   -1.7942 Cl  0  0  0  0  0  0  0  0  0  0  0  0
   -7.7797   -0.5349   -2.5060 C   0  0  0  0  0  0  0  0  0  0  0  0
   -8.7033   -0.1166   -3.9450 Cl  0  0  0  0  0  0  0  0  0  0  0  0
   -6.5267    0.0601   -2.2975 C   0  0  0  0  0  0  0  0  0  0  0  0
   -6.0482    0.9505   -3.2042 F   0  0  0  0  0  0  0  0  0  0  0  0
   -2.5172    0.5996    0.5503 C   0  0  0  0  0  0  0  0  0  0  0  0
   -1.5920    0.2552   -0.4526 C   0  0  0  0  0  0  0  0  0  0  0  0
   -0.1027    0.3876   -3.0108 H   0  0  0  0  0  0  0  0  0  0  0  0
   -0.1872   -1.3616   -2.5082 H   0  0  0  0  0  0  0  0  0  0  0  0
    1.3755   -0.6433   -3.0472 H   0  0  0  0  0  0  0  0  0  0  0  0
    1.9007    0.1893    3.3463 H   0  0  0  0  0  0  0  0  0  0  0  0
    1.9844    1.9374    2.8912 H   0  0  0  0  0  0  0  0  0  0  0  0
    4.2244    1.0548    3.4414 H   0  0  0  0  0  0  0  0  0  0  0  0
    3.4061   -1.1933    1.6232 H   0  0  0  0  0  0  0  0  0  0  0  0
    4.6143   -1.1613    2.9528 H   0  0  0  0  0  0  0  0  0  0  0  0
    6.3630   -0.4716    1.5474 H   0  0  0  0  0  0  0  0  0  0  0  0
    4.9469   -2.4126    0.2187 H   0  0  0  0  0  0  0  0  0  0  0  0
    6.3077   -1.5148   -0.5606 H   0  0  0  0  0  0  0  0  0  0  0  0
    5.6647   -0.9328   -2.7603 H   0  0  0  0  0  0  0  0  0  0  0  0
    4.5752   -2.3622   -2.5347 H   0  0  0  0  0  0  0  0  0  0  0  0
    3.9030   -0.8165   -3.1520 H   0  0  0  0  0  0  0  0  0  0  0  0
    4.9375    1.1216   -1.7543 H   0  0  0  0  0  0  0  0  0  0  0  0
    3.3642    1.0164   -0.9006 H   0  0  0  0  0  0  0  0  0  0  0  0
    6.1266    1.4042    0.1705 H   0  0  0  0  0  0  0  0  0  0  0  0
    3.5754    2.3822    0.9031 H   0  0  0  0  0  0  0  0  0  0  0  0
    5.0507    2.4747    1.9025 H   0  0  0  0  0  0  0  0  0  0  0  0
   -0.3351    1.1940    3.0998 H   0  0  0  0  0  0  0  0  0  0  0  0
   -4.9435    1.4583    3.4078 H   0  0  0  0  0  0  0  0  0  0  0  0
   -3.9876    0.7360   -1.7979 H   0  0  0  0  0  0  0  0  0  0  0  0
   -5.7035   -1.4695    0.6395 H   0  0  0  0  0  0  0  0  0  0  0  0
   -7.9032   -2.4926    0.2805 H   0  0  0  0  0  0  0  0  0  0  0  0
   -1.9376   -0.0354   -1.4327 H   0  0  0  0  0  0  0  0  0  0  0  0
  1  2  1  0
  2  3  1  0
  3  4  2  0
  4  5  1  0
  5  6  1  0
  6  7  1  0
  7  8  1  0
  8  9  1  0
  9 10  1  0
 10 11  1  0
 11 12  1  0
 11 13  1  0
 13 14  1  0
 14 15  1  0
  4 16  1  0
 16 17  2  0
 17 18  1  0
 18 19  2  0
 19 20  1  0
 20 21  2  0
 21 22  1  0
 22 23  1  0
 23 24  2  0
 24 25  1  0
 25 26  2  0
 26 27  1  0
 26 28  1  0
 28 29  1  0
 28 30  2  0
 30 31  1  0
 21 32  1  0
 32 33  2  0
 33  3  1  0
 15  7  1  0
 32 17  1  0
 14  9  1  0
 30 23  1  0
  1 34  1  0
  1 35  1  0
  1 36  1  0
  6 37  1  0
  6 38  1  0
  7 39  1  1
  8 40  1  0
  8 41  1  0
  9 42  1  1
 10 43  1  0
 10 44  1  0
 12 45  1  0
 12 46  1  0
 12 47  1  0
 13 48  1  0
 13 49  1  0
 14 50  1  6
 15 51  1  0
 15 52  1  0
 16 53  1  0
 19 54  1  0
 22 55  1  0
 24 56  1  0
 25 57  1  0
 33 58  1  0
M  END
$$$$
