
     RDKit          3D

 52 51  0  0  0  0  0  0  0  0999 V2000
   -9.6986    0.3140    0.2080 O   0  0  0  0  0  0  0  0  0  0  0  0
   -8.9544   -0.1614    1.2970 C   0  0  0  0  0  0  0  0  0  0  0  0
   -8.0840   -1.3430    0.8776 C   0  0  0  0  0  0  0  0  0  0  0  0
   -7.1932   -0.9309   -0.1375 O   0  0  0  0  0  0  0  0  0  0  0  0
   -6.3946   -2.0251   -0.5363 C   0  0  0  0  0  0  0  0  0  0  0  0
   -5.4212   -1.5717   -1.6228 C   0  0  0  0  0  0  0  0  0  0  0  0
   -4.6135   -0.5060   -1.1555 O   0  0  0  0  0  0  0  0  0  0  0  0
   -3.3952   -0.9796   -0.6110 C   0  0  0  0  0  0  0  0  0  0  0  0
   -2.2982   -0.9643   -1.6726 C   0  0  0  0  0  0  0  0  0  0  0  0
   -1.0806   -1.3731   -1.0847 O   0  0  0  0  0  0  0  0  0  0  0  0
   -0.0128   -1.2370   -2.0045 C   0  0  0  0  0  0  0  0  0  0  0  0
    0.7247    0.0861   -1.7790 C   0  0  0  0  0  0  0  0  0  0  0  0
    1.1190    0.2137   -0.4246 O   0  0  0  0  0  0  0  0  0  0  0  0
    2.4332   -0.2714   -0.2196 C   0  0  0  0  0  0  0  0  0  0  0  0
    3.4429    0.8747   -0.3189 C   0  0  0  0  0  0  0  0  0  0  0  0
    4.7573    0.3898   -0.1135 O   0  0  0  0  0  0  0  0  0  0  0  0
    5.1507    0.5160    1.2412 C   0  0  0  0  0  0  0  0  0  0  0  0
    5.8903    1.8388    1.4673 C   0  0  0  0  0  0  0  0  0  0  0  0
    6.9688    1.9737    0.5599 O   0  0  0  0  0  0  0  0  0  0  0  0
    8.1614    1.4087    1.0764 C   0  0  0  0  0  0  0  0  0  0  0  0
    9.1148    2.5116    1.5274 C   0  0  0  0  0  0  0  0  0  0  0  0
    8.5709    3.1995    2.6190 O   0  0  0  0  0  0  0  0  0  0  0  0
  -10.4419   -0.3296    0.0693 H   0  0  0  0  0  0  0  0  0  0  0  0
   -9.6320   -0.4660    2.1269 H   0  0  0  0  0  0  0  0  0  0  0  0
   -8.3047    0.6579    1.6718 H   0  0  0  0  0  0  0  0  0  0  0  0
   -8.7480   -2.1622    0.5176 H   0  0  0  0  0  0  0  0  0  0  0  0
   -7.5228   -1.6933    1.7739 H   0  0  0  0  0  0  0  0  0  0  0  0
   -7.0275   -2.8390   -0.9582 H   0  0  0  0  0  0  0  0  0  0  0  0
   -5.8117   -2.4268    0.3233 H   0  0  0  0  0  0  0  0  0  0  0  0
   -6.0111   -1.2013   -2.4880 H   0  0  0  0  0  0  0  0  0  0  0  0
   -4.8325   -2.4415   -1.9979 H   0  0  0  0  0  0  0  0  0  0  0  0
   -3.4776   -1.9934   -0.1533 H   0  0  0  0  0  0  0  0  0  0  0  0
   -3.0977   -0.2900    0.2074 H   0  0  0  0  0  0  0  0  0  0  0  0
   -2.2199    0.0694   -2.0803 H   0  0  0  0  0  0  0  0  0  0  0  0
   -2.5800   -1.6633   -2.4916 H   0  0  0  0  0  0  0  0  0  0  0  0
   -0.3279   -1.3159   -3.0724 H   0  0  0  0  0  0  0  0  0  0  0  0
    0.6958   -2.0737   -1.8323 H   0  0  0  0  0  0  0  0  0  0  0  0
    0.0349    0.9229   -2.0151 H   0  0  0  0  0  0  0  0  0  0  0  0
    1.5732    0.1771   -2.4969 H   0  0  0  0  0  0  0  0  0  0  0  0
    2.4795   -0.6987    0.8037 H   0  0  0  0  0  0  0  0  0  0  0  0
    2.7158   -1.0964   -0.9151 H   0  0  0  0  0  0  0  0  0  0  0  0
    3.3968    1.3018   -1.3423 H   0  0  0  0  0  0  0  0  0  0  0  0
    3.1604    1.6998    0.3764 H   0  0  0  0  0  0  0  0  0  0  0  0
    5.8378   -0.3229    1.4775 H   0  0  0  0  0  0  0  0  0  0  0  0
    4.3015    0.4271    1.9585 H   0  0  0  0  0  0  0  0  0  0  0  0
    6.2026    1.9293    2.5335 H   0  0  0  0  0  0  0  0  0  0  0  0
    5.1847    2.6761    1.2857 H   0  0  0  0  0  0  0  0  0  0  0  0
    8.6524    0.8438    0.2560 H   0  0  0  0  0  0  0  0  0  0  0  0
    8.0050    0.6787    1.9057 H   0  0  0  0  0  0  0  0  0  0  0  0
   10.0859    2.0537    1.8202 H   0  0  0  0  0  0  0  0  0  0  0  0
    9.2904    3.2162    0.6837 H   0  0  0  0  0  0  0  0  0  0  0  0
    9.2312    3.9005    2.8587 H   0  0  0  0  0  0  0  0  0  0  0  0
  1  2  1  0
  2  3  1  0
  3  4  1  0
  4  5  1  0
  5  6  1  0
  6  7  1  0
  7  8  1  0
  8  9  1  0
  9 10  1  0
 10 11  1  0
 11 12  1  0
 12 13  1  0
 13 14  1  0
 14 15  1  0
 15 16  1  0
 16 17  1  0
 17 18  1  0
 18 19  1  0
 19 20  1  0
 20 21  1  0
 21 22  1  0
  1 23  1  0
  2 24  1  0
  2 25  1  0
  3 26  1  0
  3 27  1  0
  5 28  1  0
  5 29  1  0
  6 30  1  0
  6 31  1  0
  8 32  1  0
  8 33  1  0
  9 34  1  0
  9 35  1  0
 11 36  1  0
 11 37  1  0
 12 38  1  0
 12 39  1  0
 14 40  1  0
 14 41  1  0
 15 42  1  0
 15 43  1  0
 17 44  1  0
 17 45  1  0
 18 46  1  0
 18 47  1  0
 20 48  1  0
 20 49  1  0
 21 50  1  0
 21 51  1  0
 22 52  1  0
M  END
$$$$
