
     RDKit          3D

 44 45  0  0  0  0  0  0  0  0999 V2000
    1.7060   -5.5778    0.2102 C   0  0  0  0  0  0  0  0  0  0  0  0
    1.5545   -4.1295   -0.2257 C   0  0  0  0  0  0  0  0  0  0  0  0
    2.8262   -3.4888   -0.2032 O   0  0  0  0  0  0  0  0  0  0  0  0
    3.0026   -2.1446   -0.5506 C   0  0  0  0  0  0  0  0  0  0  0  0
    1.9384   -1.3879   -0.9393 N   0  0  0  0  0  0  0  0  0  0  0  0
    2.0593   -0.0761   -1.2824 C   0  0  0  0  0  0  0  0  0  0  0  0
    3.3243    0.5306   -1.2354 C   0  0  0  0  0  0  0  0  0  0  0  0
    4.4333   -0.2213   -0.8435 C   0  0  0  0  0  0  0  0  0  0  0  0
    4.2792   -1.5674   -0.4978 C   0  0  0  0  0  0  0  0  0  0  0  0
    5.4242   -2.3420   -0.0914 C   0  0  0  0  0  0  0  0  0  0  0  0
    6.3436   -2.9643    0.2350 N   0  0  0  0  0  0  0  0  0  0  0  0
    0.8583    0.6873   -1.6825 C   0  0  0  0  0  0  0  0  0  0  0  0
    0.9471    1.9253   -1.9086 O   0  0  0  0  0  0  0  0  0  0  0  0
   -0.4118    0.0286   -1.8098 N   0  0  0  0  0  0  0  0  0  0  0  0
   -1.6576    0.7651   -2.0109 C   0  0  0  0  0  0  0  0  0  0  0  0
   -2.0358    1.5038   -0.7517 C   0  0  0  0  0  0  0  0  0  0  0  0
   -1.9940    2.9075   -0.7258 C   0  0  0  0  0  0  0  0  0  0  0  0
   -2.3200    3.6143    0.4357 C   0  0  0  0  0  0  0  0  0  0  0  0
   -2.2611    5.0156    0.4012 O   0  0  0  0  0  0  0  0  0  0  0  0
   -2.5633    5.8607    1.5067 C   0  0  0  0  0  0  0  0  0  0  0  0
   -2.6916    2.9037    1.5900 C   0  0  0  0  0  0  0  0  0  0  0  0
   -2.7317    1.5080    1.5769 C   0  0  0  0  0  0  0  0  0  0  0  0
   -2.4027    0.7940    0.4092 C   0  0  0  0  0  0  0  0  0  0  0  0
   -2.4256   -0.6103    0.3679 O   0  0  0  0  0  0  0  0  0  0  0  0
   -2.7412   -1.4470    1.4756 C   0  0  0  0  0  0  0  0  0  0  0  0
    2.3932   -6.1116   -0.4799 H   0  0  0  0  0  0  0  0  0  0  0  0
    0.7157   -6.0798    0.1937 H   0  0  0  0  0  0  0  0  0  0  0  0
    2.1166   -5.6225    1.2411 H   0  0  0  0  0  0  0  0  0  0  0  0
    0.8588   -3.6083    0.4675 H   0  0  0  0  0  0  0  0  0  0  0  0
    1.1360   -4.0974   -1.2551 H   0  0  0  0  0  0  0  0  0  0  0  0
    3.4558    1.5724   -1.4996 H   0  0  0  0  0  0  0  0  0  0  0  0
    5.4097    0.2470   -0.8089 H   0  0  0  0  0  0  0  0  0  0  0  0
   -0.4646   -1.0127   -1.7407 H   0  0  0  0  0  0  0  0  0  0  0  0
   -2.4708    0.0519   -2.2673 H   0  0  0  0  0  0  0  0  0  0  0  0
   -1.5486    1.4546   -2.8763 H   0  0  0  0  0  0  0  0  0  0  0  0
   -1.7034    3.4591   -1.6118 H   0  0  0  0  0  0  0  0  0  0  0  0
   -3.6159    5.7091    1.8266 H   0  0  0  0  0  0  0  0  0  0  0  0
   -2.4342    6.9188    1.2000 H   0  0  0  0  0  0  0  0  0  0  0  0
   -1.8727    5.6480    2.3499 H   0  0  0  0  0  0  0  0  0  0  0  0
   -2.9498    3.4205    2.5042 H   0  0  0  0  0  0  0  0  0  0  0  0
   -3.0191    0.9927    2.4831 H   0  0  0  0  0  0  0  0  0  0  0  0
   -3.7780   -1.2495    1.8204 H   0  0  0  0  0  0  0  0  0  0  0  0
   -2.0216   -1.2720    2.3031 H   0  0  0  0  0  0  0  0  0  0  0  0
   -2.6677   -2.5079    1.1601 H   0  0  0  0  0  0  0  0  0  0  0  0
  1  2  1  0
  2  3  1  0
  3  4  1  0
  4  5  2  0
  5  6  1  0
  6  7  2  0
  7  8  1  0
  8  9  2  0
  9 10  1  0
 10 11  3  0
  6 12  1  0
 12 13  2  0
 12 14  1  0
 14 15  1  0
 15 16  1  0
 16 17  2  0
 17 18  1  0
 18 19  1  0
 19 20  1  0
 18 21  2  0
 21 22  1  0
 22 23  2  0
 23 24  1  0
 24 25  1  0
  9  4  1  0
 23 16  1  0
  1 26  1  0
  1 27  1  0
  1 28  1  0
  2 29  1  0
  2 30  1  0
  7 31  1  0
  8 32  1  0
 14 33  1  0
 15 34  1  0
 15 35  1  0
 17 36  1  0
 20 37  1  0
 20 38  1  0
 20 39  1  0
 21 40  1  0
 22 41  1  0
 25 42  1  0
 25 43  1  0
 25 44  1  0
M  END
$$$$
