
     RDKit          3D

 65 69  0  0  0  0  0  0  0  0999 V2000
   -8.4371    1.7337    0.1277 C   0  0  0  0  0  0  0  0  0  0  0  0
   -8.9292    0.5602   -0.6156 N   0  0  0  0  0  0  0  0  0  0  0  0
   -9.3347   -0.5354    0.2868 C   0  0  0  0  0  0  0  0  0  0  0  0
   -8.1301   -1.2096    0.9834 C   0  0  0  0  0  0  0  0  0  0  0  0
   -6.8583   -0.9611    0.2721 N   0  0  0  0  0  0  0  0  0  0  0  0
   -5.8160   -1.9021    0.7273 C   0  0  0  0  0  0  0  0  0  0  0  0
   -4.4471   -1.3583    0.4136 C   0  0  0  0  0  0  0  0  0  0  0  0
   -3.9942   -0.1934    1.0484 C   0  0  0  0  0  0  0  0  0  0  0  0
   -2.7332    0.3292    0.7492 C   0  0  0  0  0  0  0  0  0  0  0  0
   -1.8980   -0.3079   -0.1856 C   0  0  0  0  0  0  0  0  0  0  0  0
   -2.3636   -1.4676   -0.8324 C   0  0  0  0  0  0  0  0  0  0  0  0
   -3.6260   -1.9884   -0.5329 C   0  0  0  0  0  0  0  0  0  0  0  0
   -0.5657    0.2671   -0.4914 C   0  0  0  0  0  0  0  0  0  0  0  0
   -0.4027    1.5138   -0.3881 O   0  0  0  0  0  0  0  0  0  0  0  0
    0.5312   -0.5684   -0.9081 N   0  0  0  0  0  0  0  0  0  0  0  0
    1.8690   -0.0857   -1.1193 C   0  0  0  0  0  0  0  0  0  0  0  0
    2.6357   -0.6237   -2.1625 C   0  0  0  0  0  0  0  0  0  0  0  0
    3.9418   -0.1804   -2.3808 C   0  0  0  0  0  0  0  0  0  0  0  0
    4.5044    0.7853   -1.5437 C   0  0  0  0  0  0  0  0  0  0  0  0
    3.7697    1.2990   -0.4609 C   0  0  0  0  0  0  0  0  0  0  0  0
    4.3260    2.2921    0.4175 N   0  0  0  0  0  0  0  0  0  0  0  0
    5.6960    2.3130    0.8436 C   0  0  0  0  0  0  0  0  0  0  0  0
    6.1694    3.3869    1.5282 N   0  0  0  0  0  0  0  0  0  0  0  0
    7.4510    3.4222    1.9738 C   0  0  0  0  0  0  0  0  0  0  0  0
    8.3032    2.3444    1.7370 C   0  0  0  0  0  0  0  0  0  0  0  0
    7.8089    1.2355    1.0313 C   0  0  0  0  0  0  0  0  0  0  0  0
    6.5127    1.2491    0.6157 N   0  0  0  0  0  0  0  0  0  0  0  0
    8.6502    0.0444    0.7436 C   0  0  0  0  0  0  0  0  0  0  0  0
    8.0477   -1.2092    0.5303 C   0  0  0  0  0  0  0  0  0  0  0  0
    8.8087   -2.3025    0.2575 N   0  0  0  0  0  0  0  0  0  0  0  0
   10.1624   -2.2293    0.1732 C   0  0  0  0  0  0  0  0  0  0  0  0
   10.8080   -1.0082    0.3637 C   0  0  0  0  0  0  0  0  0  0  0  0
   10.0517    0.1306    0.6458 C   0  0  0  0  0  0  0  0  0  0  0  0
    2.4487    0.8683   -0.2630 C   0  0  0  0  0  0  0  0  0  0  0  0
   -7.0605   -1.0425   -1.1844 C   0  0  0  0  0  0  0  0  0  0  0  0
   -7.9711    0.1091   -1.6534 C   0  0  0  0  0  0  0  0  0  0  0  0
   -7.4627    1.5300    0.6206 H   0  0  0  0  0  0  0  0  0  0  0  0
   -8.3131    2.5926   -0.5658 H   0  0  0  0  0  0  0  0  0  0  0  0
   -9.1756    2.0413    0.8989 H   0  0  0  0  0  0  0  0  0  0  0  0
  -10.0577   -0.1662    1.0473 H   0  0  0  0  0  0  0  0  0  0  0  0
   -9.8794   -1.2994   -0.3109 H   0  0  0  0  0  0  0  0  0  0  0  0
   -8.0430   -0.8005    2.0136 H   0  0  0  0  0  0  0  0  0  0  0  0
   -8.3339   -2.3020    1.0685 H   0  0  0  0  0  0  0  0  0  0  0  0
   -5.8718   -2.0361    1.8315 H   0  0  0  0  0  0  0  0  0  0  0  0
   -5.9657   -2.9092    0.2746 H   0  0  0  0  0  0  0  0  0  0  0  0
   -4.6206    0.3117    1.7736 H   0  0  0  0  0  0  0  0  0  0  0  0
   -2.4056    1.2275    1.2580 H   0  0  0  0  0  0  0  0  0  0  0  0
   -1.7741   -1.9600   -1.5931 H   0  0  0  0  0  0  0  0  0  0  0  0
   -3.9669   -2.8770   -1.0497 H   0  0  0  0  0  0  0  0  0  0  0  0
    0.3545   -1.5743   -1.1218 H   0  0  0  0  0  0  0  0  0  0  0  0
    2.2118   -1.3735   -2.8188 H   0  0  0  0  0  0  0  0  0  0  0  0
    4.5170   -0.5813   -3.2054 H   0  0  0  0  0  0  0  0  0  0  0  0
    5.5050    1.1396   -1.7530 H   0  0  0  0  0  0  0  0  0  0  0  0
    3.6759    2.9877    0.8490 H   0  0  0  0  0  0  0  0  0  0  0  0
    7.8063    4.2852    2.5210 H   0  0  0  0  0  0  0  0  0  0  0  0
    9.3127    2.3743    2.1234 H   0  0  0  0  0  0  0  0  0  0  0  0
    6.9730   -1.3235    0.5904 H   0  0  0  0  0  0  0  0  0  0  0  0
   10.7369   -3.1190   -0.0471 H   0  0  0  0  0  0  0  0  0  0  0  0
   11.8857   -0.9430    0.2862 H   0  0  0  0  0  0  0  0  0  0  0  0
   10.5659    1.0750    0.7607 H   0  0  0  0  0  0  0  0  0  0  0  0
    1.8925    1.2512    0.5826 H   0  0  0  0  0  0  0  0  0  0  0  0
   -6.0912   -0.9630   -1.7233 H   0  0  0  0  0  0  0  0  0  0  0  0
   -7.5193   -2.0208   -1.4576 H   0  0  0  0  0  0  0  0  0  0  0  0
   -7.3393    0.9559   -2.0058 H   0  0  0  0  0  0  0  0  0  0  0  0
   -8.5466   -0.2335   -2.5399 H   0  0  0  0  0  0  0  0  0  0  0  0
  1  2  1  0
  2  3  1  0
  3  4  1  0
  4  5  1  0
  5  6  1  0
  6  7  1  0
  7  8  2  0
  8  9  1  0
  9 10  2  0
 10 11  1  0
 11 12  2  0
 10 13  1  0
 13 14  2  0
 13 15  1  0
 15 16  1  0
 16 17  2  0
 17 18  1  0
 18 19  2  0
 19 20  1  0
 20 21  1  0
 21 22  1  0
 22 23  2  0
 23 24  1  0
 24 25  2  0
 25 26  1  0
 26 27  2  0
 26 28  1  0
 28 29  2  0
 29 30  1  0
 30 31  2  0
 31 32  1  0
 32 33  2  0
 20 34  2  0
  5 35  1  0
 35 36  1  0
 36  2  1  0
 12  7  1  0
 34 16  1  0
 27 22  1  0
 33 28  1  0
  1 37  1  0
  1 38  1  0
  1 39  1  0
  3 40  1  0
  3 41  1  0
  4 42  1  0
  4 43  1  0
  6 44  1  0
  6 45  1  0
  8 46  1  0
  9 47  1  0
 11 48  1  0
 12 49  1  0
 15 50  1  0
 17 51  1  0
 18 52  1  0
 19 53  1  0
 21 54  1  0
 24 55  1  0
 25 56  1  0
 29 57  1  0
 31 58  1  0
 32 59  1  0
 33 60  1  0
 34 61  1  0
 35 62  1  0
 35 63  1  0
 36 64  1  0
 36 65  1  0
M  END
$$$$
