
     RDKit          3D

 38 40  0  0  0  0  0  0  0  0999 V2000
    5.5178   -0.6264    0.2006 C   0  0  1  0  0  0  0  0  0  0  0  0
    5.8712   -1.3336   -0.9598 O   0  0  0  0  0  0  0  0  0  0  0  0
    6.1525    0.7690    0.1512 C   0  0  0  0  0  0  0  0  0  0  0  0
    5.9402    1.4540    1.3571 O   0  0  0  0  0  0  0  0  0  0  0  0
    4.0106   -0.5311    0.3152 C   0  0  0  0  0  0  0  0  0  0  0  0
    3.2315   -0.1476   -0.7895 C   0  0  0  0  0  0  0  0  0  0  0  0
    1.8431   -0.0363   -0.6728 C   0  0  0  0  0  0  0  0  0  0  0  0
    1.2105   -0.2879    0.5574 C   0  0  0  0  0  0  0  0  0  0  0  0
   -0.2184   -0.2022    0.6977 N   0  0  0  0  0  0  0  0  0  0  0  0
   -1.0385    0.7243   -0.0329 C   0  0  0  0  0  0  0  0  0  0  0  0
   -0.5204    1.7436   -0.5648 O   0  0  0  0  0  0  0  0  0  0  0  0
   -2.4965    0.5232   -0.1327 C   0  0  0  0  0  0  0  0  0  0  0  0
   -3.3903    1.4428   -0.6815 C   0  0  0  0  0  0  0  0  0  0  0  0
   -4.6255    0.8414   -0.5844 C   0  0  0  0  0  0  0  0  0  0  0  0
   -5.8855    1.2907   -0.9737 C   0  0  0  0  0  0  0  0  0  0  0  0
   -6.9844    0.4391   -0.7498 C   0  0  0  0  0  0  0  0  0  0  0  0
   -8.5944    0.9519   -1.2191 Cl  0  0  0  0  0  0  0  0  0  0  0  0
   -6.7955   -0.8274   -0.1497 C   0  0  0  0  0  0  0  0  0  0  0  0
   -5.5090   -1.2516    0.2308 C   0  0  0  0  0  0  0  0  0  0  0  0
   -4.4421   -0.3851   -0.0021 C   0  0  0  0  0  0  0  0  0  0  0  0
   -3.1452   -0.5945    0.2785 N   0  0  0  0  0  0  0  0  0  0  0  0
    1.9879   -0.6831    1.6557 C   0  0  0  0  0  0  0  0  0  0  0  0
    3.3764   -0.7937    1.5400 C   0  0  0  0  0  0  0  0  0  0  0  0
    5.9387   -1.1576    1.0868 H   0  0  0  0  0  0  0  0  0  0  0  0
    5.6493   -2.2871   -0.7921 H   0  0  0  0  0  0  0  0  0  0  0  0
    5.7585    1.3531   -0.7126 H   0  0  0  0  0  0  0  0  0  0  0  0
    7.2480    0.6594    0.0034 H   0  0  0  0  0  0  0  0  0  0  0  0
    5.0504    1.8888    1.2875 H   0  0  0  0  0  0  0  0  0  0  0  0
    3.6993    0.0595   -1.7440 H   0  0  0  0  0  0  0  0  0  0  0  0
    1.2658    0.2255   -1.5494 H   0  0  0  0  0  0  0  0  0  0  0  0
   -0.6678   -0.7714    1.4493 H   0  0  0  0  0  0  0  0  0  0  0  0
   -3.1661    2.4171   -1.0962 H   0  0  0  0  0  0  0  0  0  0  0  0
   -6.0131    2.2625   -1.4337 H   0  0  0  0  0  0  0  0  0  0  0  0
   -7.6434   -1.4787    0.0193 H   0  0  0  0  0  0  0  0  0  0  0  0
   -5.3543   -2.2196    0.6896 H   0  0  0  0  0  0  0  0  0  0  0  0
   -2.7343   -1.4532    0.7071 H   0  0  0  0  0  0  0  0  0  0  0  0
    1.5170   -0.8940    2.6076 H   0  0  0  0  0  0  0  0  0  0  0  0
    3.9560   -1.0837    2.4076 H   0  0  0  0  0  0  0  0  0  0  0  0
  1  2  1  0
  1  3  1  0
  3  4  1  0
  1  5  1  0
  5  6  2  0
  6  7  1  0
  7  8  2  0
  8  9  1  0
  9 10  1  0
 10 11  2  0
 10 12  1  0
 12 13  2  0
 13 14  1  0
 14 15  2  0
 15 16  1  0
 16 17  1  0
 16 18  2  0
 18 19  1  0
 19 20  2  0
 20 21  1  0
  8 22  1  0
 22 23  2  0
 23  5  1  0
 21 12  1  0
 20 14  1  0
  1 24  1  1
  2 25  1  0
  3 26  1  0
  3 27  1  0
  4 28  1  0
  6 29  1  0
  7 30  1  0
  9 31  1  0
 13 32  1  0
 15 33  1  0
 18 34  1  0
 19 35  1  0
 21 36  1  0
 22 37  1  0
 23 38  1  0
M  END
$$$$
