
     RDKit          3D

 58 60  0  0  0  0  0  0  0  0999 V2000
   -5.8575   -2.1164   -1.8463 C   0  0  0  0  0  0  0  0  0  0  0  0
   -5.2671   -1.2746   -0.7982 N   0  0  0  0  0  0  0  0  0  0  0  0
   -4.1421   -1.7907    0.0052 C   0  0  1  0  0  0  0  0  0  0  0  0
   -2.8481   -1.0426   -0.3766 C   0  0  0  0  0  0  0  0  0  0  0  0
   -1.6605   -1.6799    0.2000 N   0  0  0  0  0  0  0  0  0  0  0  0
   -0.3286   -1.1564    0.0382 C   0  0  0  0  0  0  0  0  0  0  0  0
    0.7459   -1.8097    0.6599 C   0  0  0  0  0  0  0  0  0  0  0  0
    2.0504   -1.3273    0.5225 C   0  0  0  0  0  0  0  0  0  0  0  0
    2.3094   -0.1810   -0.2486 C   0  0  0  0  0  0  0  0  0  0  0  0
    1.2322    0.4809   -0.8621 C   0  0  0  0  0  0  0  0  0  0  0  0
   -0.0722   -0.0025   -0.7253 C   0  0  0  0  0  0  0  0  0  0  0  0
    3.6867    0.3476   -0.3971 C   0  0  0  0  0  0  0  0  0  0  0  0
    3.8536    1.5690   -0.6663 O   0  0  0  0  0  0  0  0  0  0  0  0
    4.8314   -0.5117   -0.2575 N   0  0  0  0  0  0  0  0  0  0  0  0
    6.1973    0.0189   -0.1790 C   0  0  1  0  0  0  0  0  0  0  0  0
    6.4436    0.6280    1.2187 C   0  0  0  0  0  0  0  0  0  0  0  0
    7.8089    1.3216    1.3561 C   0  0  0  0  0  0  0  0  0  0  0  0
    7.9102    2.5300    0.4771 C   0  0  0  0  0  0  0  0  0  0  0  0
    8.6026    2.4555   -0.7274 O   0  0  0  0  0  0  0  0  0  0  0  0
    7.3451    3.6048    0.8137 O   0  0  0  0  0  0  0  0  0  0  0  0
    7.1923   -1.0691   -0.4853 C   0  0  0  0  0  0  0  0  0  0  0  0
    8.0425   -0.9401   -1.5792 O   0  0  0  0  0  0  0  0  0  0  0  0
    7.2616   -2.0944    0.2454 O   0  0  0  0  0  0  0  0  0  0  0  0
   -4.4770   -1.6454    1.5017 C   0  0  0  0  0  0  0  0  0  0  0  0
   -4.8869   -0.2767    1.8069 N   0  0  0  0  0  0  0  0  0  0  0  0
   -5.6574    0.4900    0.8715 C   0  0  0  0  0  0  0  0  0  0  0  0
   -5.8526    0.0018   -0.4324 C   0  0  0  0  0  0  0  0  0  0  0  0
   -6.5935    0.8037   -1.3253 C   0  0  0  0  0  0  0  0  0  0  0  0
   -6.7817    0.4531   -2.5190 O   0  0  0  0  0  0  0  0  0  0  0  0
   -7.1008    1.9898   -0.9035 N   0  0  0  0  0  0  0  0  0  0  0  0
   -6.9048    2.4364    0.3633 C   0  0  0  0  0  0  0  0  0  0  0  0
   -7.4550    3.6912    0.7645 N   0  0  0  0  0  0  0  0  0  0  0  0
   -6.1803    1.6913    1.2407 N   0  0  0  0  0  0  0  0  0  0  0  0
   -6.9619   -2.1467   -1.7321 H   0  0  0  0  0  0  0  0  0  0  0  0
   -5.4868   -3.1611   -1.7918 H   0  0  0  0  0  0  0  0  0  0  0  0
   -5.5889   -1.7178   -2.8461 H   0  0  0  0  0  0  0  0  0  0  0  0
   -3.9820   -2.8721   -0.2012 H   0  0  0  0  0  0  0  0  0  0  0  0
   -2.9066    0.0129   -0.0332 H   0  0  0  0  0  0  0  0  0  0  0  0
   -2.7502   -1.0441   -1.4840 H   0  0  0  0  0  0  0  0  0  0  0  0
   -1.7750   -2.5633    0.7478 H   0  0  0  0  0  0  0  0  0  0  0  0
    0.5716   -2.6933    1.2611 H   0  0  0  0  0  0  0  0  0  0  0  0
    2.8475   -1.8415    1.0427 H   0  0  0  0  0  0  0  0  0  0  0  0
    1.3998    1.3687   -1.4595 H   0  0  0  0  0  0  0  0  0  0  0  0
   -0.8720    0.5299   -1.2212 H   0  0  0  0  0  0  0  0  0  0  0  0
    4.6864   -1.5466   -0.2507 H   0  0  0  0  0  0  0  0  0  0  0  0
    6.3128    0.8103   -0.9515 H   0  0  0  0  0  0  0  0  0  0  0  0
    6.3717   -0.1737    1.9862 H   0  0  0  0  0  0  0  0  0  0  0  0
    5.6448    1.3664    1.4490 H   0  0  0  0  0  0  0  0  0  0  0  0
    7.9453    1.6372    2.4129 H   0  0  0  0  0  0  0  0  0  0  0  0
    8.6303    0.6129    1.1171 H   0  0  0  0  0  0  0  0  0  0  0  0
    8.6678    3.2598   -1.3396 H   0  0  0  0  0  0  0  0  0  0  0  0
    8.7202   -1.6604   -1.7982 H   0  0  0  0  0  0  0  0  0  0  0  0
   -5.3163   -2.3306    1.7489 H   0  0  0  0  0  0  0  0  0  0  0  0
   -3.6111   -1.9290    2.1367 H   0  0  0  0  0  0  0  0  0  0  0  0
   -4.6477    0.1277    2.7400 H   0  0  0  0  0  0  0  0  0  0  0  0
   -8.0086    4.2638    0.0894 H   0  0  0  0  0  0  0  0  0  0  0  0
   -7.3121    4.0514    1.7340 H   0  0  0  0  0  0  0  0  0  0  0  0
   -6.0266    2.0440    2.2123 H   0  0  0  0  0  0  0  0  0  0  0  0
  1  2  1  0
  2  3  1  0
  3  4  1  0
  4  5  1  0
  5  6  1  0
  6  7  2  0
  7  8  1  0
  8  9  2  0
  9 10  1  0
 10 11  2  0
  9 12  1  0
 12 13  2  0
 12 14  1  0
 14 15  1  0
 15 16  1  0
 16 17  1  0
 17 18  1  0
 18 19  1  0
 18 20  2  0
 15 21  1  0
 21 22  1  0
 21 23  2  0
  3 24  1  0
 24 25  1  0
 25 26  1  0
 26 27  2  0
 27 28  1  0
 28 29  2  0
 28 30  1  0
 30 31  2  0
 31 32  1  0
 31 33  1  0
 27  2  1  0
 11  6  1  0
 33 26  1  0
  1 34  1  0
  1 35  1  0
  1 36  1  0
  3 37  1  6
  4 38  1  0
  4 39  1  0
  5 40  1  0
  7 41  1  0
  8 42  1  0
 10 43  1  0
 11 44  1  0
 14 45  1  0
 15 46  1  6
 16 47  1  0
 16 48  1  0
 17 49  1  0
 17 50  1  0
 19 51  1  0
 22 52  1  0
 24 53  1  0
 24 54  1  0
 25 55  1  0
 32 56  1  0
 32 57  1  0
 33 58  1  0
M  END
$$$$
