
     RDKit          3D

 45 47  0  0  0  0  0  0  0  0999 V2000
    6.6441   -1.2734   -0.7493 C   0  0  0  0  0  0  0  0  0  0  0  0
    6.2075   -1.3395    0.6045 O   0  0  0  0  0  0  0  0  0  0  0  0
    4.9406   -0.9338    1.0500 C   0  0  0  0  0  0  0  0  0  0  0  0
    3.9623   -0.4163    0.1779 C   0  0  0  0  0  0  0  0  0  0  0  0
    2.7022   -0.0226    0.6667 C   0  0  0  0  0  0  0  0  0  0  0  0
    2.4320   -0.1531    2.0404 C   0  0  0  0  0  0  0  0  0  0  0  0
    3.4007   -0.6654    2.9056 C   0  0  0  0  0  0  0  0  0  0  0  0
    4.6477   -1.0532    2.4126 C   0  0  0  0  0  0  0  0  0  0  0  0
    1.6727    0.5238   -0.2543 C   0  0  0  0  0  0  0  0  0  0  0  0
    0.3259    0.1341   -0.1317 C   0  0  0  0  0  0  0  0  0  0  0  0
   -0.6666    0.6509   -0.9958 C   0  0  0  0  0  0  0  0  0  0  0  0
   -0.2680    1.5582   -1.9994 C   0  0  0  0  0  0  0  0  0  0  0  0
    1.0662    1.9458   -2.1253 C   0  0  0  0  0  0  0  0  0  0  0  0
    2.0315    1.4354   -1.2594 C   0  0  0  0  0  0  0  0  0  0  0  0
   -2.1386    0.2300   -0.8838 C   0  0  2  0  0  0  0  0  0  0  0  0
   -2.5339   -0.5494   -2.1556 C   0  0  0  0  0  0  0  0  0  0  0  0
   -3.0333    1.4879   -0.7168 C   0  0  0  0  0  0  0  0  0  0  0  0
   -4.4240    1.1032   -0.3055 C   0  0  0  0  0  0  0  0  0  0  0  0
   -5.3898    1.8604   -0.5952 O   0  0  0  0  0  0  0  0  0  0  0  0
   -4.6315   -0.0943    0.4642 N   0  0  0  0  0  0  0  0  0  0  0  0
   -5.9752   -0.4777    0.9056 C   0  0  0  0  0  0  0  0  0  0  0  0
   -3.4705   -0.8460    0.8732 C   0  0  0  0  0  0  0  0  0  0  0  0
   -3.5308   -1.7570    1.9748 N   0  0  0  0  0  0  0  0  0  0  0  0
   -2.3303   -0.6583    0.2743 N   0  0  0  0  0  0  0  0  0  0  0  0
    6.6270   -0.2216   -1.1052 H   0  0  0  0  0  0  0  0  0  0  0  0
    5.9947   -1.9054   -1.3912 H   0  0  0  0  0  0  0  0  0  0  0  0
    7.6843   -1.6532   -0.8136 H   0  0  0  0  0  0  0  0  0  0  0  0
    4.1688   -0.3348   -0.8806 H   0  0  0  0  0  0  0  0  0  0  0  0
    1.4780    0.1572    2.4479 H   0  0  0  0  0  0  0  0  0  0  0  0
    3.1856   -0.7586    3.9623 H   0  0  0  0  0  0  0  0  0  0  0  0
    5.3915   -1.4487    3.0926 H   0  0  0  0  0  0  0  0  0  0  0  0
    0.0668   -0.5887    0.6299 H   0  0  0  0  0  0  0  0  0  0  0  0
   -0.9889    1.9690   -2.6933 H   0  0  0  0  0  0  0  0  0  0  0  0
    1.3528    2.6477   -2.8979 H   0  0  0  0  0  0  0  0  0  0  0  0
    3.0575    1.7648   -1.3666 H   0  0  0  0  0  0  0  0  0  0  0  0
   -3.5769   -0.9241   -2.0815 H   0  0  0  0  0  0  0  0  0  0  0  0
   -2.4638    0.0909   -3.0602 H   0  0  0  0  0  0  0  0  0  0  0  0
   -1.8635   -1.4255   -2.2908 H   0  0  0  0  0  0  0  0  0  0  0  0
   -2.6122    2.1445    0.0756 H   0  0  0  0  0  0  0  0  0  0  0  0
   -3.0791    2.0727   -1.6609 H   0  0  0  0  0  0  0  0  0  0  0  0
   -6.7504   -0.0772    0.2189 H   0  0  0  0  0  0  0  0  0  0  0  0
   -6.0799   -1.5833    0.9044 H   0  0  0  0  0  0  0  0  0  0  0  0
   -6.1583   -0.0864    1.9282 H   0  0  0  0  0  0  0  0  0  0  0  0
   -4.3906   -1.8594    2.5565 H   0  0  0  0  0  0  0  0  0  0  0  0
   -2.6843   -2.3045    2.2477 H   0  0  0  0  0  0  0  0  0  0  0  0
  1  2  1  0
  2  3  1  0
  3  4  2  0
  4  5  1  0
  5  6  2  0
  6  7  1  0
  7  8  2  0
  5  9  1  0
  9 10  2  0
 10 11  1  0
 11 12  2  0
 12 13  1  0
 13 14  2  0
 11 15  1  0
 15 16  1  6
 15 17  1  0
 17 18  1  0
 18 19  2  0
 18 20  1  0
 20 21  1  0
 20 22  1  0
 22 23  1  0
 22 24  2  0
  8  3  1  0
 14  9  1  0
 24 15  1  0
  1 25  1  0
  1 26  1  0
  1 27  1  0
  4 28  1  0
  6 29  1  0
  7 30  1  0
  8 31  1  0
 10 32  1  0
 12 33  1  0
 13 34  1  0
 14 35  1  0
 16 36  1  0
 16 37  1  0
 16 38  1  0
 17 39  1  0
 17 40  1  0
 21 41  1  0
 21 42  1  0
 21 43  1  0
 23 44  1  0
 23 45  1  0
M  END
$$$$
