
     RDKit          3D

 37 40  0  0  0  0  0  0  0  0999 V2000
    2.8701   -1.2163    1.7932 F   0  0  0  0  0  0  0  0  0  0  0  0
    3.8720   -0.8691    0.9461 C   0  0  0  0  0  0  0  0  0  0  0  0
    3.7307    0.2183    0.0574 C   0  0  0  0  0  0  0  0  0  0  0  0
    4.8247    0.5871   -0.7465 C   0  0  0  0  0  0  0  0  0  0  0  0
    6.0234   -0.1291   -0.6856 C   0  0  0  0  0  0  0  0  0  0  0  0
    6.1478   -1.2136    0.1846 C   0  0  0  0  0  0  0  0  0  0  0  0
    5.0759   -1.5799    1.0013 C   0  0  0  0  0  0  0  0  0  0  0  0
    2.4713    0.9949   -0.0276 C   0  0  0  0  0  0  0  0  0  0  0  0
    1.2165    0.3628    0.0062 C   0  0  0  0  0  0  0  0  0  0  0  0
    0.0410    1.1278   -0.0913 C   0  0  0  0  0  0  0  0  0  0  0  0
    0.1527    2.5205   -0.2316 C   0  0  0  0  0  0  0  0  0  0  0  0
    1.4153    3.1121   -0.2787 C   0  0  0  0  0  0  0  0  0  0  0  0
    2.5321    2.3464   -0.1801 N   0  0  0  0  0  0  0  0  0  0  0  0
   -1.2916    0.4749   -0.0516 C   0  0  0  0  0  0  0  0  0  0  0  0
   -1.5634   -0.7779    0.4968 C   0  0  0  0  0  0  0  0  0  0  0  0
   -2.9183   -0.9587    0.3282 C   0  0  0  0  0  0  0  0  0  0  0  0
   -3.4119    0.1440   -0.3079 C   0  0  0  0  0  0  0  0  0  0  0  0
   -4.8799    0.3570   -0.5442 C   0  0  0  0  0  0  0  0  0  0  0  0
   -5.6154   -1.0007   -0.6572 C   0  0  0  0  0  0  0  0  0  0  0  0
   -5.1789   -1.9561    0.3745 N   0  0  0  0  0  0  0  0  0  0  0  0
   -3.7962   -2.0460    0.7440 C   0  0  0  0  0  0  0  0  0  0  0  0
   -3.3681   -3.0148    1.4252 O   0  0  0  0  0  0  0  0  0  0  0  0
   -2.4300    1.0344   -0.5305 N   0  0  0  0  0  0  0  0  0  0  0  0
    4.7464    1.4213   -1.4330 H   0  0  0  0  0  0  0  0  0  0  0  0
    6.8567    0.1571   -1.3143 H   0  0  0  0  0  0  0  0  0  0  0  0
    7.0775   -1.7658    0.2317 H   0  0  0  0  0  0  0  0  0  0  0  0
    5.1821   -2.4112    1.6864 H   0  0  0  0  0  0  0  0  0  0  0  0
    1.1595   -0.7158    0.0653 H   0  0  0  0  0  0  0  0  0  0  0  0
   -0.7223    3.1530   -0.2920 H   0  0  0  0  0  0  0  0  0  0  0  0
    1.5077    4.1842   -0.3902 H   0  0  0  0  0  0  0  0  0  0  0  0
   -0.8757   -1.4553    0.9854 H   0  0  0  0  0  0  0  0  0  0  0  0
   -5.0317    0.9443   -1.4747 H   0  0  0  0  0  0  0  0  0  0  0  0
   -5.2969    0.9310    0.3105 H   0  0  0  0  0  0  0  0  0  0  0  0
   -6.7114   -0.8378   -0.5758 H   0  0  0  0  0  0  0  0  0  0  0  0
   -5.4082   -1.4400   -1.6569 H   0  0  0  0  0  0  0  0  0  0  0  0
   -5.8617   -2.6503    0.7527 H   0  0  0  0  0  0  0  0  0  0  0  0
   -2.5420    1.9674   -0.9847 H   0  0  0  0  0  0  0  0  0  0  0  0
  1  2  1  0
  2  3  2  0
  3  4  1  0
  4  5  2  0
  5  6  1  0
  6  7  2  0
  3  8  1  0
  8  9  2  0
  9 10  1  0
 10 11  2  0
 11 12  1  0
 12 13  2  0
 10 14  1  0
 14 15  2  0
 15 16  1  0
 16 17  2  0
 17 18  1  0
 18 19  1  0
 19 20  1  0
 20 21  1  0
 21 22  2  0
 17 23  1  0
  7  2  1  0
 13  8  1  0
 23 14  1  0
 21 16  1  0
  4 24  1  0
  5 25  1  0
  6 26  1  0
  7 27  1  0
  9 28  1  0
 11 29  1  0
 12 30  1  0
 15 31  1  0
 18 32  1  0
 18 33  1  0
 19 34  1  0
 19 35  1  0
 20 36  1  0
 23 37  1  0
M  END
$$$$
