
     RDKit          3D

 26 27  0  0  0  0  0  0  0  0999 V2000
   -1.4090   -1.1946    0.1398 C   0  0  1  0  0  0  0  0  0  0  0  0
   -1.8920   -2.0648   -0.8500 O   0  0  0  0  0  0  0  0  0  0  0  0
    0.0163   -1.5597    0.5490 C   0  0  2  0  0  0  0  0  0  0  0  0
    0.0001   -2.5165    1.5749 O   0  0  0  0  0  0  0  0  0  0  0  0
    0.6430   -0.2451    1.0278 C   0  0  1  0  0  0  0  0  0  0  0  0
    1.9729   -0.0496    0.4610 N   0  0  0  0  0  0  0  0  0  0  0  0
    1.9461    0.9875   -0.3052 C   0  0  0  0  0  0  0  0  0  0  0  0
    0.7131    1.6026   -0.3781 O   0  0  0  0  0  0  0  0  0  0  0  0
   -0.2041    0.8918    0.4375 C   0  0  1  0  0  0  0  0  0  0  0  0
   -1.3056    0.2313   -0.4021 C   0  0  2  0  0  0  0  0  0  0  0  0
   -2.6462    0.9806   -0.3248 C   0  0  0  0  0  0  0  0  0  0  0  0
   -2.5454    2.2318   -0.9505 O   0  0  0  0  0  0  0  0  0  0  0  0
    3.0872    1.4675   -1.0254 N   0  0  0  0  0  0  0  0  0  0  0  0
    4.2560    0.9086   -0.9816 C   0  0  0  0  0  0  0  0  0  0  0  0
   -2.0765   -1.2118    1.0352 H   0  0  0  0  0  0  0  0  0  0  0  0
   -2.1013   -2.9212   -0.3936 H   0  0  0  0  0  0  0  0  0  0  0  0
    0.5624   -1.9555   -0.3411 H   0  0  0  0  0  0  0  0  0  0  0  0
    0.9353   -2.8336    1.6766 H   0  0  0  0  0  0  0  0  0  0  0  0
    0.6812   -0.1774    2.1380 H   0  0  0  0  0  0  0  0  0  0  0  0
   -0.6012    1.5477    1.2439 H   0  0  0  0  0  0  0  0  0  0  0  0
   -0.9807    0.1852   -1.4677 H   0  0  0  0  0  0  0  0  0  0  0  0
   -3.4221    0.3902   -0.8572 H   0  0  0  0  0  0  0  0  0  0  0  0
   -2.9794    1.0937    0.7331 H   0  0  0  0  0  0  0  0  0  0  0  0
   -2.1602    2.8569   -0.2826 H   0  0  0  0  0  0  0  0  0  0  0  0
    4.4390    0.0247   -0.3827 H   0  0  0  0  0  0  0  0  0  0  0  0
    5.0709    1.3297   -1.5542 H   0  0  0  0  0  0  0  0  0  0  0  0
  1  2  1  0
  1  3  1  0
  3  4  1  0
  3  5  1  0
  5  6  1  0
  6  7  2  0
  7  8  1  0
  8  9  1  0
  9 10  1  0
 10 11  1  0
 11 12  1  0
  7 13  1  0
 13 14  2  3
 10  1  1  0
  9  5  1  0
  1 15  1  1
  2 16  1  0
  3 17  1  6
  4 18  1  0
  5 19  1  1
  9 20  1  1
 10 21  1  6
 11 22  1  0
 11 23  1  0
 12 24  1  0
 14 25  1  0
 14 26  1  0
M  END
$$$$
