
     RDKit          3D

 56 59  0  0  0  0  0  0  0  0999 V2000
   -0.0773    3.9821    2.0310 C   0  0  0  0  0  0  0  0  0  0  0  0
   -0.6259    4.2617    0.6367 C   0  0  0  0  0  0  0  0  0  0  0  0
   -1.3837    3.1132    0.1457 N   0  0  0  0  0  0  0  0  0  0  0  0
   -2.6957    2.7898    0.6309 C   0  0  0  0  0  0  0  0  0  0  0  0
   -3.3423    3.6325    1.3097 O   0  0  0  0  0  0  0  0  0  0  0  0
   -3.3267    1.4986    0.3052 C   0  0  0  0  0  0  0  0  0  0  0  0
   -4.6567    1.3495    0.1524 N   0  0  0  0  0  0  0  0  0  0  0  0
   -4.8704    0.1109   -0.1866 O   0  0  0  0  0  0  0  0  0  0  0  0
   -3.7490   -0.5707   -0.2565 C   0  0  0  0  0  0  0  0  0  0  0  0
   -2.7021    0.2853    0.0553 C   0  0  0  0  0  0  0  0  0  0  0  0
   -1.2597   -0.0215    0.1179 C   0  0  0  0  0  0  0  0  0  0  0  0
   -0.6181   -0.6394   -0.9657 C   0  0  0  0  0  0  0  0  0  0  0  0
    0.7547   -0.8964   -0.9169 C   0  0  0  0  0  0  0  0  0  0  0  0
    1.5013   -0.5443    0.2181 C   0  0  0  0  0  0  0  0  0  0  0  0
    2.9893   -0.7724    0.2424 C   0  0  0  0  0  0  0  0  0  0  0  0
    3.6689    0.1353   -0.7091 N   0  0  0  0  0  0  0  0  0  0  0  0
    3.6924    1.5430   -0.2517 C   0  0  0  0  0  0  0  0  0  0  0  0
    4.7709    1.7854    0.8189 C   0  0  0  0  0  0  0  0  0  0  0  0
    6.0430    1.3786    0.3572 O   0  0  0  0  0  0  0  0  0  0  0  0
    6.0276   -0.0075    0.0840 C   0  0  0  0  0  0  0  0  0  0  0  0
    5.0320   -0.3263   -1.0418 C   0  0  0  0  0  0  0  0  0  0  0  0
    0.8553    0.0612    1.3072 C   0  0  0  0  0  0  0  0  0  0  0  0
   -0.5163    0.3191    1.2575 C   0  0  0  0  0  0  0  0  0  0  0  0
   -3.6854   -2.0110   -0.5911 C   0  0  0  0  0  0  0  0  0  0  0  0
   -4.5531   -2.5544   -1.5581 C   0  0  0  0  0  0  0  0  0  0  0  0
   -5.4630   -1.7346   -2.2261 O   0  0  0  0  0  0  0  0  0  0  0  0
   -4.4935   -3.9221   -1.8616 C   0  0  0  0  0  0  0  0  0  0  0  0
   -3.5788   -4.7562   -1.2064 C   0  0  0  0  0  0  0  0  0  0  0  0
   -3.5182   -6.1142   -1.5152 O   0  0  0  0  0  0  0  0  0  0  0  0
   -2.7248   -4.2208   -0.2344 C   0  0  0  0  0  0  0  0  0  0  0  0
   -1.5778   -5.2487    0.6105 Cl  0  0  0  0  0  0  0  0  0  0  0  0
   -2.7847   -2.8590    0.0766 C   0  0  0  0  0  0  0  0  0  0  0  0
   -0.9072    3.7884    2.7427 H   0  0  0  0  0  0  0  0  0  0  0  0
    0.5006    4.8607    2.3871 H   0  0  0  0  0  0  0  0  0  0  0  0
    0.5957    3.0991    2.0047 H   0  0  0  0  0  0  0  0  0  0  0  0
    0.2269    4.4595   -0.0483 H   0  0  0  0  0  0  0  0  0  0  0  0
   -1.2705    5.1668    0.6524 H   0  0  0  0  0  0  0  0  0  0  0  0
   -0.9786    2.5579   -0.6407 H   0  0  0  0  0  0  0  0  0  0  0  0
   -1.1767   -0.9046   -1.8549 H   0  0  0  0  0  0  0  0  0  0  0  0
    1.2397   -1.3582   -1.7681 H   0  0  0  0  0  0  0  0  0  0  0  0
    3.3909   -0.6566    1.2717 H   0  0  0  0  0  0  0  0  0  0  0  0
    3.1625   -1.8333   -0.0444 H   0  0  0  0  0  0  0  0  0  0  0  0
    2.7011    1.8567    0.1392 H   0  0  0  0  0  0  0  0  0  0  0  0
    3.9061    2.1968   -1.1252 H   0  0  0  0  0  0  0  0  0  0  0  0
    4.8103    2.8738    1.0349 H   0  0  0  0  0  0  0  0  0  0  0  0
    4.5135    1.2819    1.7768 H   0  0  0  0  0  0  0  0  0  0  0  0
    7.0432   -0.3101   -0.2474 H   0  0  0  0  0  0  0  0  0  0  0  0
    5.7984   -0.5955    1.0010 H   0  0  0  0  0  0  0  0  0  0  0  0
    5.0435   -1.4168   -1.2595 H   0  0  0  0  0  0  0  0  0  0  0  0
    5.3667    0.1849   -1.9708 H   0  0  0  0  0  0  0  0  0  0  0  0
    1.4153    0.3478    2.1887 H   0  0  0  0  0  0  0  0  0  0  0  0
   -0.9978    0.7906    2.1054 H   0  0  0  0  0  0  0  0  0  0  0  0
   -6.0938   -2.1024   -2.9287 H   0  0  0  0  0  0  0  0  0  0  0  0
   -5.1568   -4.3363   -2.6106 H   0  0  0  0  0  0  0  0  0  0  0  0
   -4.1253   -6.5271   -2.2135 H   0  0  0  0  0  0  0  0  0  0  0  0
   -2.1399   -2.4712    0.8544 H   0  0  0  0  0  0  0  0  0  0  0  0
  1  2  1  0
  2  3  1  0
  3  4  1  0
  4  5  2  0
  4  6  1  0
  6  7  2  0
  7  8  1  0
  8  9  1  0
  9 10  2  0
 10 11  1  0
 11 12  2  0
 12 13  1  0
 13 14  2  0
 14 15  1  0
 15 16  1  0
 16 17  1  0
 17 18  1  0
 18 19  1  0
 19 20  1  0
 20 21  1  0
 14 22  1  0
 22 23  2  0
  9 24  1  0
 24 25  2  0
 25 26  1  0
 25 27  1  0
 27 28  2  0
 28 29  1  0
 28 30  1  0
 30 31  1  0
 30 32  2  0
 10  6  1  0
 23 11  1  0
 32 24  1  0
 21 16  1  0
  1 33  1  0
  1 34  1  0
  1 35  1  0
  2 36  1  0
  2 37  1  0
  3 38  1  0
 12 39  1  0
 13 40  1  0
 15 41  1  0
 15 42  1  0
 17 43  1  0
 17 44  1  0
 18 45  1  0
 18 46  1  0
 20 47  1  0
 20 48  1  0
 21 49  1  0
 21 50  1  0
 22 51  1  0
 23 52  1  0
 26 53  1  0
 27 54  1  0
 29 55  1  0
 32 56  1  0
M  END
$$$$
