
     RDKit          3D

 38 40  0  0  0  0  0  0  0  0999 V2000
    6.4998   -0.0339   -0.7632 O   0  0  0  0  0  0  0  0  0  0  0  0
    5.2741   -0.6306   -1.0404 C   0  0  0  0  0  0  0  0  0  0  0  0
    5.1069   -1.8596   -0.8192 O   0  0  0  0  0  0  0  0  0  0  0  0
    4.1615    0.1829   -1.6214 C   0  0  0  0  0  0  0  0  0  0  0  0
    2.9712    0.0348   -0.8477 O   0  0  0  0  0  0  0  0  0  0  0  0
    2.7566    0.5647    0.4378 C   0  0  0  0  0  0  0  0  0  0  0  0
    3.7247    1.3622    1.0828 C   0  0  0  0  0  0  0  0  0  0  0  0
    3.5070    1.8326    2.3795 C   0  0  0  0  0  0  0  0  0  0  0  0
    4.4480    2.5936    2.9910 F   0  0  0  0  0  0  0  0  0  0  0  0
    2.3267    1.5143    3.0500 C   0  0  0  0  0  0  0  0  0  0  0  0
    1.3542    0.7352    2.4220 C   0  0  0  0  0  0  0  0  0  0  0  0
    1.5484    0.2699    1.1099 C   0  0  0  0  0  0  0  0  0  0  0  0
    0.4876   -0.5423    0.4729 C   0  0  0  0  0  0  0  0  0  0  0  0
   -0.1479   -1.3812    1.1685 O   0  0  0  0  0  0  0  0  0  0  0  0
    0.1492   -0.3587   -0.9110 N   0  0  0  0  0  0  0  0  0  0  0  0
   -0.8297   -1.1998   -1.5940 C   0  0  0  0  0  0  0  0  0  0  0  0
   -2.2122   -0.8391   -1.1566 C   0  0  0  0  0  0  0  0  0  0  0  0
   -2.9406   -1.5927   -0.2967 N   0  0  0  0  0  0  0  0  0  0  0  0
   -4.1370   -1.0081   -0.0324 C   0  0  0  0  0  0  0  0  0  0  0  0
   -4.3555    0.2042   -0.6687 C   0  0  0  0  0  0  0  0  0  0  0  0
   -3.0147    0.5840   -1.6048 S   0  0  0  0  0  0  0  0  0  0  0  0
   -5.5327    0.9284   -0.4935 C   0  0  0  0  0  0  0  0  0  0  0  0
   -5.7252    2.1133   -1.1240 F   0  0  0  0  0  0  0  0  0  0  0  0
   -6.5171    0.3987    0.3560 C   0  0  0  0  0  0  0  0  0  0  0  0
   -6.3066   -0.8328    1.0089 C   0  0  0  0  0  0  0  0  0  0  0  0
   -7.2651   -1.3324    1.8276 F   0  0  0  0  0  0  0  0  0  0  0  0
   -5.1083   -1.5441    0.8162 C   0  0  0  0  0  0  0  0  0  0  0  0
   -4.9010   -2.7284    1.4442 F   0  0  0  0  0  0  0  0  0  0  0  0
    7.2636   -0.5733   -0.3735 H   0  0  0  0  0  0  0  0  0  0  0  0
    3.9611   -0.1822   -2.6501 H   0  0  0  0  0  0  0  0  0  0  0  0
    4.4454    1.2543   -1.6964 H   0  0  0  0  0  0  0  0  0  0  0  0
    4.6543    1.6183    0.5955 H   0  0  0  0  0  0  0  0  0  0  0  0
    2.1617    1.8751    4.0571 H   0  0  0  0  0  0  0  0  0  0  0  0
    0.4390    0.5088    2.9557 H   0  0  0  0  0  0  0  0  0  0  0  0
    0.5653    0.4390   -1.4419 H   0  0  0  0  0  0  0  0  0  0  0  0
   -0.6213   -2.2716   -1.3872 H   0  0  0  0  0  0  0  0  0  0  0  0
   -0.7500   -1.0428   -2.6909 H   0  0  0  0  0  0  0  0  0  0  0  0
   -7.4418    0.9395    0.5108 H   0  0  0  0  0  0  0  0  0  0  0  0
  1  2  1  0
  2  3  2  0
  2  4  1  0
  4  5  1  0
  5  6  1  0
  6  7  2  0
  7  8  1  0
  8  9  1  0
  8 10  2  0
 10 11  1  0
 11 12  2  0
 12 13  1  0
 13 14  2  0
 13 15  1  0
 15 16  1  0
 16 17  1  0
 17 18  2  0
 18 19  1  0
 19 20  2  0
 20 21  1  0
 20 22  1  0
 22 23  1  0
 22 24  2  0
 24 25  1  0
 25 26  1  0
 25 27  2  0
 27 28  1  0
 12  6  1  0
 21 17  1  0
 27 19  1  0
  1 29  1  0
  4 30  1  0
  4 31  1  0
  7 32  1  0
 10 33  1  0
 11 34  1  0
 15 35  1  0
 16 36  1  0
 16 37  1  0
 24 38  1  0
M  END
$$$$
