
     RDKit          3D

 56 59  0  0  0  0  0  0  0  0999 V2000
   -0.7469    0.6939   -0.5617 C   0  0  2  0  0  0  0  0  0  0  0  0
   -1.5208    1.9267   -1.0155 C   0  0  0  0  0  0  0  0  0  0  0  0
   -3.0053    1.5354   -0.7941 C   0  0  1  0  0  0  0  0  0  0  0  0
   -3.7692    1.4085   -2.1178 C   0  0  0  0  0  0  0  0  0  0  0  0
   -2.9803    0.1865   -0.0070 C   0  0  2  0  0  0  0  0  0  0  0  0
   -4.1265    0.0171    0.9861 C   0  0  0  0  0  0  0  0  0  0  0  0
   -4.5640    0.9905    1.5820 O   0  0  0  0  0  0  0  0  0  0  0  0
   -4.7454   -1.3257    1.2830 C   0  0  0  0  0  0  0  0  0  0  0  0
   -4.1028   -2.3590    0.5892 O   0  0  0  0  0  0  0  0  0  0  0  0
   -1.5604    0.1447    0.6177 C   0  0  2  0  0  0  0  0  0  0  0  0
   -1.5276    1.0594    1.8901 C   0  0  0  0  0  0  0  0  0  0  0  0
   -1.0514   -1.2865    0.9363 C   0  0  0  0  0  0  0  0  0  0  0  0
    0.4911   -1.3812    1.1494 C   0  0  2  0  0  0  0  0  0  0  0  0
    0.8236   -1.0307    2.4668 O   0  0  0  0  0  0  0  0  0  0  0  0
    1.3498   -0.6482    0.0352 C   0  0  1  0  0  0  0  0  0  0  0  0
    1.1524   -1.6823   -1.4517 Cl  0  0  0  0  0  0  0  0  0  0  0  0
    0.7742    0.7920   -0.2770 C   0  0  1  0  0  0  0  0  0  0  0  0
    1.5138    1.4524   -1.4631 C   0  0  0  0  0  0  0  0  0  0  0  0
    3.0255    1.5184   -1.2325 C   0  0  2  0  0  0  0  0  0  0  0  0
    3.6220    2.0350   -2.3726 F   0  0  0  0  0  0  0  0  0  0  0  0
    3.5702    0.1491   -0.8710 C   0  0  0  0  0  0  0  0  0  0  0  0
    4.6318   -0.3558   -1.5260 C   0  0  0  0  0  0  0  0  0  0  0  0
    5.1591   -1.6814   -1.2010 C   0  0  0  0  0  0  0  0  0  0  0  0
    6.1635   -2.1305   -1.8132 O   0  0  0  0  0  0  0  0  0  0  0  0
    4.5048   -2.4885   -0.1754 C   0  0  0  0  0  0  0  0  0  0  0  0
    3.4613   -2.0081    0.5001 C   0  0  0  0  0  0  0  0  0  0  0  0
    2.9179   -0.5886    0.3158 C   0  0  2  0  0  0  0  0  0  0  0  0
    3.3293    0.1865    1.5954 C   0  0  0  0  0  0  0  0  0  0  0  0
   -0.8545   -0.0133   -1.4173 H   0  0  0  0  0  0  0  0  0  0  0  0
   -1.2961    2.1710   -2.0775 H   0  0  0  0  0  0  0  0  0  0  0  0
   -1.2504    2.8021   -0.3850 H   0  0  0  0  0  0  0  0  0  0  0  0
   -3.4894    2.3401   -0.1984 H   0  0  0  0  0  0  0  0  0  0  0  0
   -3.7929    2.3904   -2.6365 H   0  0  0  0  0  0  0  0  0  0  0  0
   -3.2827    0.6635   -2.7837 H   0  0  0  0  0  0  0  0  0  0  0  0
   -4.8148    1.0894   -1.9214 H   0  0  0  0  0  0  0  0  0  0  0  0
   -3.0538   -0.6373   -0.7531 H   0  0  0  0  0  0  0  0  0  0  0  0
   -5.8194   -1.2949    0.9949 H   0  0  0  0  0  0  0  0  0  0  0  0
   -4.6729   -1.5154    2.3771 H   0  0  0  0  0  0  0  0  0  0  0  0
   -4.5662   -3.1967    0.8506 H   0  0  0  0  0  0  0  0  0  0  0  0
   -1.9042    0.5051    2.7759 H   0  0  0  0  0  0  0  0  0  0  0  0
   -0.5371    1.4677    2.1354 H   0  0  0  0  0  0  0  0  0  0  0  0
   -2.1660    1.9581    1.7708 H   0  0  0  0  0  0  0  0  0  0  0  0
   -1.5761   -1.6863    1.8312 H   0  0  0  0  0  0  0  0  0  0  0  0
   -1.3196   -1.9635    0.0955 H   0  0  0  0  0  0  0  0  0  0  0  0
    0.7216   -2.4660    1.0769 H   0  0  0  0  0  0  0  0  0  0  0  0
    0.8610   -0.0490    2.5272 H   0  0  0  0  0  0  0  0  0  0  0  0
    0.9306    1.4591    0.5881 H   0  0  0  0  0  0  0  0  0  0  0  0
    1.1431    2.4915   -1.5980 H   0  0  0  0  0  0  0  0  0  0  0  0
    1.3072    0.9045   -2.4081 H   0  0  0  0  0  0  0  0  0  0  0  0
    3.2371    2.2217   -0.3996 H   0  0  0  0  0  0  0  0  0  0  0  0
    5.1109    0.1963   -2.3245 H   0  0  0  0  0  0  0  0  0  0  0  0
    4.8696   -3.4860    0.0368 H   0  0  0  0  0  0  0  0  0  0  0  0
    3.0329   -2.6350    1.2719 H   0  0  0  0  0  0  0  0  0  0  0  0
    2.8112    1.1593    1.6942 H   0  0  0  0  0  0  0  0  0  0  0  0
    4.4212    0.3979    1.5759 H   0  0  0  0  0  0  0  0  0  0  0  0
    3.1599   -0.4038    2.5191 H   0  0  0  0  0  0  0  0  0  0  0  0
  1  2  1  0
  2  3  1  0
  3  4  1  0
  3  5  1  0
  5  6  1  0
  6  7  2  0
  6  8  1  0
  8  9  1  0
  5 10  1  0
 10 11  1  1
 10 12  1  0
 12 13  1  0
 13 14  1  0
 13 15  1  0
 15 16  1  6
 15 17  1  0
 17 18  1  0
 18 19  1  0
 19 20  1  0
 19 21  1  0
 21 22  2  0
 22 23  1  0
 23 24  2  0
 23 25  1  0
 25 26  2  0
 26 27  1  0
 27 28  1  1
 10  1  1  0
 27 15  1  0
 17  1  1  0
 27 21  1  0
  1 29  1  6
  2 30  1  0
  2 31  1  0
  3 32  1  1
  4 33  1  0
  4 34  1  0
  4 35  1  0
  5 36  1  6
  8 37  1  0
  8 38  1  0
  9 39  1  0
 11 40  1  0
 11 41  1  0
 11 42  1  0
 12 43  1  0
 12 44  1  0
 13 45  1  1
 14 46  1  0
 17 47  1  1
 18 48  1  0
 18 49  1  0
 19 50  1  1
 22 51  1  0
 25 52  1  0
 26 53  1  0
 28 54  1  0
 28 55  1  0
 28 56  1  0
M  END
$$$$
