
     RDKit          3D

 41 41  0  0  0  0  0  0  0  0999 V2000
   -4.6836   -2.3754   -0.4917 C   0  0  0  0  0  0  0  0  0  0  0  0
   -4.3727   -1.4009    0.6470 C   0  0  1  0  0  0  0  0  0  0  0  0
   -3.2950   -0.4852    0.2618 N   0  0  0  0  0  0  0  0  0  0  0  0
   -2.5883    0.3084    1.2263 C   0  0  0  0  0  0  0  0  0  0  0  0
   -2.9016    0.2543    2.4467 O   0  0  0  0  0  0  0  0  0  0  0  0
   -1.4445    1.1815    0.7981 C   0  0  0  0  0  0  0  0  0  0  0  0
   -0.0861    0.5291    1.0972 C   0  0  0  0  0  0  0  0  0  0  0  0
    0.1918   -0.7467    0.2847 C   0  0  0  0  0  0  0  0  0  0  0  0
    0.5491   -0.3978   -1.4742 P   0  0  0  0  0  5  0  0  0  0  0  0
    1.2669   -1.7543   -2.1883 O   0  0  0  0  0  0  0  0  0  0  0  0
   -0.7403   -0.0951   -2.2022 O   0  0  0  0  0  0  0  0  0  0  0  0
    1.6004    0.9598   -1.6222 O   0  0  0  0  0  0  0  0  0  0  0  0
    2.9097    1.0267   -1.1227 C   0  0  0  0  0  0  0  0  0  0  0  0
    3.5767   -0.0794   -0.5637 C   0  0  0  0  0  0  0  0  0  0  0  0
    4.8808    0.0534   -0.0777 C   0  0  0  0  0  0  0  0  0  0  0  0
    5.5462    1.2904   -0.1429 C   0  0  0  0  0  0  0  0  0  0  0  0
    4.8789    2.3900   -0.7077 C   0  0  0  0  0  0  0  0  0  0  0  0
    3.5753    2.2551   -1.1930 C   0  0  0  0  0  0  0  0  0  0  0  0
    6.8887    1.4309    0.3570 N   0  0  0  0  0  4  0  0  0  0  0  0
    7.5366    2.6432    0.2898 O   0  0  0  0  0  1  0  0  0  0  0  0
    7.4864    0.4568    0.8599 O   0  0  0  0  0  0  0  0  0  0  0  0
   -5.6048   -0.6249    1.0123 C   0  0  0  0  0  0  0  0  0  0  0  0
   -6.2856   -0.9223    2.1886 O   0  0  0  0  0  0  0  0  0  0  0  0
   -6.0381    0.2783    0.2467 O   0  0  0  0  0  0  0  0  0  0  0  0
   -5.0213   -1.8270   -1.3975 H   0  0  0  0  0  0  0  0  0  0  0  0
   -5.4800   -3.0855   -0.1815 H   0  0  0  0  0  0  0  0  0  0  0  0
   -3.7733   -2.9590   -0.7463 H   0  0  0  0  0  0  0  0  0  0  0  0
   -4.0426   -2.0009    1.5238 H   0  0  0  0  0  0  0  0  0  0  0  0
   -3.0173   -0.4127   -0.7433 H   0  0  0  0  0  0  0  0  0  0  0  0
   -1.5297    1.4351   -0.2782 H   0  0  0  0  0  0  0  0  0  0  0  0
   -1.5057    2.1405    1.3564 H   0  0  0  0  0  0  0  0  0  0  0  0
   -0.0423    0.2757    2.1792 H   0  0  0  0  0  0  0  0  0  0  0  0
    0.7209    1.2701    0.9124 H   0  0  0  0  0  0  0  0  0  0  0  0
    1.0774   -1.2505    0.7233 H   0  0  0  0  0  0  0  0  0  0  0  0
   -0.6567   -1.4584    0.3556 H   0  0  0  0  0  0  0  0  0  0  0  0
    0.6303   -2.4949   -2.0227 H   0  0  0  0  0  0  0  0  0  0  0  0
    3.1077   -1.0493   -0.5047 H   0  0  0  0  0  0  0  0  0  0  0  0
    5.3699   -0.8137    0.3475 H   0  0  0  0  0  0  0  0  0  0  0  0
    5.3635    3.3554   -0.7747 H   0  0  0  0  0  0  0  0  0  0  0  0
    3.0758    3.1141   -1.6233 H   0  0  0  0  0  0  0  0  0  0  0  0
   -7.1234   -0.4146    2.4464 H   0  0  0  0  0  0  0  0  0  0  0  0
  1  2  1  0
  2  3  1  0
  3  4  1  0
  4  5  2  0
  4  6  1  0
  6  7  1  0
  7  8  1  0
  8  9  1  0
  9 10  1  0
  9 11  2  0
  9 12  1  0
 12 13  1  0
 13 14  2  0
 14 15  1  0
 15 16  2  0
 16 17  1  0
 17 18  2  0
 16 19  1  0
 19 20  1  0
 19 21  2  0
  2 22  1  0
 22 23  1  0
 22 24  2  0
 18 13  1  0
  1 25  1  0
  1 26  1  0
  1 27  1  0
  2 28  1  1
  3 29  1  0
  6 30  1  0
  6 31  1  0
  7 32  1  0
  7 33  1  0
  8 34  1  0
  8 35  1  0
 10 36  1  0
 14 37  1  0
 15 38  1  0
 17 39  1  0
 18 40  1  0
 23 41  1  0
M  CHG  2  19   1  20  -1
M  END
$$$$
