
     RDKit          3D

 62 65  0  0  0  0  0  0  0  0999 V2000
   -2.2610   -0.4902   -1.5230 C   0  0  2  0  0  0  0  0  0  0  0  0
   -1.6673   -0.8654   -2.8114 N   0  0  0  0  0  0  0  0  0  0  0  0
   -2.7964    0.9291   -1.5824 C   0  0  0  0  0  0  0  0  0  0  0  0
   -2.2226    1.7692   -2.3292 O   0  0  0  0  0  0  0  0  0  0  0  0
   -3.9059    1.3575   -0.7694 N   0  0  0  0  0  0  0  0  0  0  0  0
   -4.3268    2.7465   -0.6962 C   0  0  0  0  0  0  0  0  0  0  0  0
   -5.4015    2.7959    0.3811 C   0  0  0  0  0  0  0  0  0  0  0  0
   -5.8660    1.3539    0.5657 C   0  0  2  0  0  0  0  0  0  0  0  0
   -6.1351    1.0846    1.8973 F   0  0  0  0  0  0  0  0  0  0  0  0
   -4.7293    0.4811    0.0483 C   0  0  0  0  0  0  0  0  0  0  0  0
   -1.2550   -0.6608   -0.3422 C   0  0  1  0  0  0  0  0  0  0  0  0
   -0.8628   -2.1220   -0.1471 C   0  0  0  0  0  0  0  0  0  0  0  0
   -0.0426   -2.6484   -0.9473 O   0  0  0  0  0  0  0  0  0  0  0  0
   -1.4062   -2.9306    0.9222 N   0  0  0  0  0  0  0  0  0  0  0  0
   -2.6278   -2.5437    1.6362 C   0  0  0  0  0  0  0  0  0  0  0  0
   -0.7439   -4.1970    1.2517 C   0  0  0  0  0  0  0  0  0  0  0  0
   -0.0291    0.3174   -0.3517 C   0  0  1  0  0  0  0  0  0  0  0  0
    0.8226    0.1980    0.9483 C   0  0  0  0  0  0  0  0  0  0  0  0
    2.1206   -0.6039    0.7594 C   0  0  0  0  0  0  0  0  0  0  0  0
    3.0046   -0.0827   -0.4086 C   0  0  1  0  0  0  0  0  0  0  0  0
    2.2386    0.8263   -1.3929 C   0  0  0  0  0  0  0  0  0  0  0  0
    0.8326    0.2780   -1.6436 C   0  0  0  0  0  0  0  0  0  0  0  0
    4.2625    0.6084    0.0886 C   0  0  0  0  0  0  0  0  0  0  0  0
    4.1977    1.7351    0.9377 C   0  0  0  0  0  0  0  0  0  0  0  0
    5.3855    2.3558    1.3696 C   0  0  0  0  0  0  0  0  0  0  0  0
    6.6331    1.8649    0.9581 C   0  0  0  0  0  0  0  0  0  0  0  0
    6.6408    0.7571    0.1171 C   0  0  0  0  0  0  0  0  0  0  0  0
    7.7261    0.1453   -0.3890 N   0  0  0  0  0  0  0  0  0  0  0  0
    7.1581   -0.8446   -1.1244 C   0  0  0  0  0  0  0  0  0  0  0  0
    5.8058   -0.8363   -1.0698 N   0  0  0  0  0  0  0  0  0  0  0  0
    5.5025    0.1785   -0.2834 N   0  0  0  0  0  0  0  0  0  0  0  0
   -3.1185   -1.1737   -1.3402 H   0  0  0  0  0  0  0  0  0  0  0  0
   -2.3593   -0.6615   -3.5695 H   0  0  0  0  0  0  0  0  0  0  0  0
   -1.5413   -1.9024   -2.8334 H   0  0  0  0  0  0  0  0  0  0  0  0
   -3.4691    3.3984   -0.4212 H   0  0  0  0  0  0  0  0  0  0  0  0
   -4.7429    3.0619   -1.6776 H   0  0  0  0  0  0  0  0  0  0  0  0
   -4.9582    3.1738    1.3289 H   0  0  0  0  0  0  0  0  0  0  0  0
   -6.2439    3.4572    0.0829 H   0  0  0  0  0  0  0  0  0  0  0  0
   -6.7820    1.1773   -0.0402 H   0  0  0  0  0  0  0  0  0  0  0  0
   -4.1286    0.0850    0.8932 H   0  0  0  0  0  0  0  0  0  0  0  0
   -5.1389   -0.3539   -0.5596 H   0  0  0  0  0  0  0  0  0  0  0  0
   -1.8226   -0.3524    0.5571 H   0  0  0  0  0  0  0  0  0  0  0  0
   -3.0088   -3.3701    2.2720 H   0  0  0  0  0  0  0  0  0  0  0  0
   -3.4261   -2.2913    0.9080 H   0  0  0  0  0  0  0  0  0  0  0  0
   -2.4234   -1.6750    2.2960 H   0  0  0  0  0  0  0  0  0  0  0  0
   -1.2140   -4.6940    2.1261 H   0  0  0  0  0  0  0  0  0  0  0  0
    0.3220   -4.0067    1.4997 H   0  0  0  0  0  0  0  0  0  0  0  0
   -0.7999   -4.8873    0.3837 H   0  0  0  0  0  0  0  0  0  0  0  0
   -0.4579    1.3441   -0.3113 H   0  0  0  0  0  0  0  0  0  0  0  0
    1.0922    1.2177    1.2976 H   0  0  0  0  0  0  0  0  0  0  0  0
    0.2318   -0.2583    1.7723 H   0  0  0  0  0  0  0  0  0  0  0  0
    2.6865   -0.6042    1.7169 H   0  0  0  0  0  0  0  0  0  0  0  0
    1.8527   -1.6643    0.5678 H   0  0  0  0  0  0  0  0  0  0  0  0
    3.3073   -0.9825   -0.9882 H   0  0  0  0  0  0  0  0  0  0  0  0
    2.1558    1.8631   -0.9985 H   0  0  0  0  0  0  0  0  0  0  0  0
    2.7924    0.8764   -2.3560 H   0  0  0  0  0  0  0  0  0  0  0  0
    0.9296   -0.7487   -2.0461 H   0  0  0  0  0  0  0  0  0  0  0  0
    0.3499    0.8952   -2.4312 H   0  0  0  0  0  0  0  0  0  0  0  0
    3.2465    2.1333    1.2615 H   0  0  0  0  0  0  0  0  0  0  0  0
    5.3357    3.2183    2.0213 H   0  0  0  0  0  0  0  0  0  0  0  0
    7.5538    2.3332    1.2812 H   0  0  0  0  0  0  0  0  0  0  0  0
    7.7274   -1.5654   -1.6955 H   0  0  0  0  0  0  0  0  0  0  0  0
  1  2  1  0
  1  3  1  0
  3  4  2  0
  3  5  1  0
  5  6  1  0
  6  7  1  0
  7  8  1  0
  8  9  1  0
  8 10  1  0
  1 11  1  0
 11 12  1  0
 12 13  2  0
 12 14  1  0
 14 15  1  0
 14 16  1  0
 11 17  1  0
 17 18  1  0
 18 19  1  0
 19 20  1  0
 20 21  1  0
 21 22  1  0
 20 23  1  0
 23 24  2  0
 24 25  1  0
 25 26  2  0
 26 27  1  0
 27 28  2  0
 28 29  1  0
 29 30  2  0
 30 31  1  0
 10  5  1  0
 22 17  1  0
 31 23  1  0
 31 27  1  0
  1 32  1  1
  2 33  1  0
  2 34  1  0
  6 35  1  0
  6 36  1  0
  7 37  1  0
  7 38  1  0
  8 39  1  6
 10 40  1  0
 10 41  1  0
 11 42  1  1
 15 43  1  0
 15 44  1  0
 15 45  1  0
 16 46  1  0
 16 47  1  0
 16 48  1  0
 17 49  1  1
 18 50  1  0
 18 51  1  0
 19 52  1  0
 19 53  1  0
 20 54  1  6
 21 55  1  0
 21 56  1  0
 22 57  1  0
 22 58  1  0
 24 59  1  0
 25 60  1  0
 26 61  1  0
 29 62  1  0
M  END
$$$$
