
     RDKit          3D

 31 32  0  0  0  0  0  0  0  0999 V2000
   -1.1140   -0.6740    1.1842 C   0  0  2  0  0  0  0  0  0  0  0  0
    0.2649   -0.5440    0.4878 C   0  0  0  0  0  0  0  0  0  0  0  0
    1.1831    0.4662    1.1996 C   0  0  0  0  0  0  0  0  0  0  0  0
    2.4102    0.8470    0.3569 C   0  0  0  0  0  0  0  0  0  0  0  0
    3.3899   -0.3197    0.1802 C   0  0  0  0  0  0  0  0  0  0  0  0
    4.6260    0.1416   -0.5312 C   0  0  0  0  0  0  0  0  0  0  0  0
    4.8523   -0.2165   -1.6760 O   0  0  0  0  0  0  0  0  0  0  0  0
   -1.7491   -2.3650    0.9493 S   0  0  0  0  0  0  0  0  0  0  0  0
   -2.4881   -1.8663   -0.6271 C   0  0  0  0  0  0  0  0  0  0  0  0
   -3.0347   -0.4563   -0.4435 C   0  0  2  0  0  0  0  0  0  0  0  0
   -2.8779    0.3363   -1.6575 N   0  0  0  0  0  0  0  0  0  0  0  0
   -2.1128    1.4727   -1.3297 C   0  0  0  0  0  0  0  0  0  0  0  0
   -1.8489    2.3926   -2.1471 O   0  0  0  0  0  0  0  0  0  0  0  0
   -1.6925    1.4827    0.0154 N   0  0  0  0  0  0  0  0  0  0  0  0
   -2.2141    0.2751    0.6520 C   0  0  2  0  0  0  0  0  0  0  0  0
   -0.9911   -0.5178    2.2785 H   0  0  0  0  0  0  0  0  0  0  0  0
    0.7773   -1.5299    0.5105 H   0  0  0  0  0  0  0  0  0  0  0  0
    0.1358   -0.2741   -0.5825 H   0  0  0  0  0  0  0  0  0  0  0  0
    0.6237    1.3959    1.4254 H   0  0  0  0  0  0  0  0  0  0  0  0
    1.5141    0.0444    2.1740 H   0  0  0  0  0  0  0  0  0  0  0  0
    2.9338    1.6828    0.8717 H   0  0  0  0  0  0  0  0  0  0  0  0
    2.0808    1.2184   -0.6387 H   0  0  0  0  0  0  0  0  0  0  0  0
    3.6832   -0.7221    1.1734 H   0  0  0  0  0  0  0  0  0  0  0  0
    2.9112   -1.1359   -0.4027 H   0  0  0  0  0  0  0  0  0  0  0  0
    5.3143    0.8186   -0.0355 H   0  0  0  0  0  0  0  0  0  0  0  0
   -1.7005   -1.8911   -1.4114 H   0  0  0  0  0  0  0  0  0  0  0  0
   -3.3000   -2.5696   -0.9080 H   0  0  0  0  0  0  0  0  0  0  0  0
   -4.1090   -0.4935   -0.1565 H   0  0  0  0  0  0  0  0  0  0  0  0
   -3.3210    0.1410   -2.5827 H   0  0  0  0  0  0  0  0  0  0  0  0
   -1.2551    2.2954    0.5023 H   0  0  0  0  0  0  0  0  0  0  0  0
   -2.8917    0.5653    1.4854 H   0  0  0  0  0  0  0  0  0  0  0  0
  1  2  1  0
  2  3  1  0
  3  4  1  0
  4  5  1  0
  5  6  1  0
  6  7  2  0
  1  8  1  0
  8  9  1  0
  9 10  1  0
 10 11  1  0
 11 12  1  0
 12 13  2  0
 12 14  1  0
 14 15  1  0
 15  1  1  0
 15 10  1  0
  1 16  1  1
  2 17  1  0
  2 18  1  0
  3 19  1  0
  3 20  1  0
  4 21  1  0
  4 22  1  0
  5 23  1  0
  5 24  1  0
  6 25  1  0
  9 26  1  0
  9 27  1  0
 10 28  1  1
 11 29  1  0
 14 30  1  0
 15 31  1  1
M  END
$$$$
