
     RDKit          3D

 39 42  0  0  0  0  0  0  0  0999 V2000
   -2.3314   -1.7561    2.1169 O   0  0  0  0  0  0  0  0  0  0  0  0
   -3.0198   -0.8723    1.2914 C   0  0  0  0  0  0  0  0  0  0  0  0
   -4.0823   -0.3355    1.7060 O   0  0  0  0  0  0  0  0  0  0  0  0
   -2.5570   -0.6169   -0.0887 C   0  0  0  0  0  0  0  0  0  0  0  0
   -3.5129   -0.6792   -1.1185 C   0  0  0  0  0  0  0  0  0  0  0  0
   -3.1433   -0.4884   -2.4496 C   0  0  0  0  0  0  0  0  0  0  0  0
   -1.8157   -0.2244   -2.7739 C   0  0  0  0  0  0  0  0  0  0  0  0
   -0.8546   -0.1365   -1.7675 C   0  0  0  0  0  0  0  0  0  0  0  0
   -1.2019   -0.3228   -0.4126 C   0  0  0  0  0  0  0  0  0  0  0  0
   -0.1242   -0.1039    0.6446 C   0  0  0  0  0  0  0  0  0  0  0  0
    1.0165   -1.0832    0.4335 C   0  0  0  0  0  0  0  0  0  0  0  0
    0.7979   -2.4608    0.6065 C   0  0  0  0  0  0  0  0  0  0  0  0
    1.8245   -3.3767    0.3621 C   0  0  0  0  0  0  0  0  0  0  0  0
    3.0815   -2.9280   -0.0617 C   0  0  0  0  0  0  0  0  0  0  0  0
    4.1109   -3.8322   -0.3130 O   0  0  0  0  0  0  0  0  0  0  0  0
    3.3077   -1.5592   -0.2337 C   0  0  0  0  0  0  0  0  0  0  0  0
    2.2863   -0.6366    0.0173 C   0  0  0  0  0  0  0  0  0  0  0  0
    2.5466    0.7260   -0.1369 O   0  0  0  0  0  0  0  0  0  0  0  0
    1.6116    1.7059    0.1997 C   0  0  0  0  0  0  0  0  0  0  0  0
    0.3176    1.3475    0.6246 C   0  0  0  0  0  0  0  0  0  0  0  0
   -0.5876    2.3576    0.9935 C   0  0  0  0  0  0  0  0  0  0  0  0
   -0.2131    3.7021    0.9265 C   0  0  0  0  0  0  0  0  0  0  0  0
    1.0700    4.0538    0.4890 C   0  0  0  0  0  0  0  0  0  0  0  0
    1.4528    5.3910    0.4131 O   0  0  0  0  0  0  0  0  0  0  0  0
    1.9779    3.0542    0.1264 C   0  0  0  0  0  0  0  0  0  0  0  0
   -2.6559   -1.9505    3.0566 H   0  0  0  0  0  0  0  0  0  0  0  0
   -4.5500   -0.8966   -0.8922 H   0  0  0  0  0  0  0  0  0  0  0  0
   -3.8888   -0.5491   -3.2320 H   0  0  0  0  0  0  0  0  0  0  0  0
   -1.5314   -0.0751   -3.8076 H   0  0  0  0  0  0  0  0  0  0  0  0
    0.1662    0.0969   -2.0441 H   0  0  0  0  0  0  0  0  0  0  0  0
   -0.5075   -0.2829    1.6665 H   0  0  0  0  0  0  0  0  0  0  0  0
   -0.1718   -2.8264    0.9178 H   0  0  0  0  0  0  0  0  0  0  0  0
    1.6400   -4.4350    0.4964 H   0  0  0  0  0  0  0  0  0  0  0  0
    3.9789   -4.8303   -0.1973 H   0  0  0  0  0  0  0  0  0  0  0  0
    4.2809   -1.2105   -0.5557 H   0  0  0  0  0  0  0  0  0  0  0  0
   -1.5875    2.1016    1.3220 H   0  0  0  0  0  0  0  0  0  0  0  0
   -0.9223    4.4694    1.2096 H   0  0  0  0  0  0  0  0  0  0  0  0
    0.8184    6.1386    0.6692 H   0  0  0  0  0  0  0  0  0  0  0  0
    2.9729    3.3245   -0.2043 H   0  0  0  0  0  0  0  0  0  0  0  0
  1  2  1  0
  2  3  2  0
  2  4  1  0
  4  5  2  0
  5  6  1  0
  6  7  2  0
  7  8  1  0
  8  9  2  0
  9 10  1  0
 10 11  1  0
 11 12  2  0
 12 13  1  0
 13 14  2  0
 14 15  1  0
 14 16  1  0
 16 17  2  0
 17 18  1  0
 18 19  1  0
 19 20  2  0
 20 21  1  0
 21 22  2  0
 22 23  1  0
 23 24  1  0
 23 25  2  0
  9  4  1  0
 20 10  1  0
 17 11  1  0
 25 19  1  0
  1 26  1  0
  5 27  1  0
  6 28  1  0
  7 29  1  0
  8 30  1  0
 10 31  1  0
 12 32  1  0
 13 33  1  0
 15 34  1  0
 16 35  1  0
 21 36  1  0
 22 37  1  0
 24 38  1  0
 25 39  1  0
M  END
$$$$
