
     RDKit          3D

 44 47  0  0  0  0  0  0  0  0999 V2000
   -0.2471    4.2453    1.7755 N   0  0  0  0  0  0  0  0  0  0  0  0
    0.3799    3.3112    0.9001 C   0  0  0  0  0  0  0  0  0  0  0  0
    1.2664    3.7438   -0.0352 N   0  0  0  0  0  0  0  0  0  0  0  0
    1.8727    2.8690   -0.8785 C   0  0  0  0  0  0  0  0  0  0  0  0
    1.5879    1.5073   -0.7919 C   0  0  0  0  0  0  0  0  0  0  0  0
    0.6737    1.0748    0.1761 C   0  0  0  0  0  0  0  0  0  0  0  0
    0.0922    1.9865    1.0003 N   0  0  0  0  0  0  0  0  0  0  0  0
    0.3464   -0.3582    0.3177 C   0  0  0  0  0  0  0  0  0  0  0  0
    1.2481   -1.4120    0.3869 C   0  0  0  0  0  0  0  0  0  0  0  0
    0.5738   -2.5780    0.3326 N   0  0  0  0  0  0  0  0  0  0  0  0
   -0.7222   -2.2178    0.2430 C   0  0  0  0  0  0  0  0  0  0  0  0
   -0.8999   -0.8774    0.2489 N   0  0  0  0  0  0  0  0  0  0  0  0
   -2.1572   -0.1613   -0.0298 C   0  0  0  0  0  0  0  0  0  0  0  0
   -3.3546   -0.7672    0.7475 C   0  0  0  0  0  0  0  0  0  0  0  0
   -4.2811   -1.5840   -0.1659 C   0  0  0  0  0  0  0  0  0  0  0  0
   -4.8142   -0.7843   -1.2857 N   0  0  0  0  0  0  0  0  0  0  0  0
   -3.8784    0.2204   -1.8333 C   0  0  0  0  0  0  0  0  0  0  0  0
   -2.4099   -0.1160   -1.5484 C   0  0  0  0  0  0  0  0  0  0  0  0
    2.7219   -1.3414    0.5023 C   0  0  0  0  0  0  0  0  0  0  0  0
    3.5166   -2.3222   -0.1152 C   0  0  0  0  0  0  0  0  0  0  0  0
    4.9100   -2.2743   -0.0077 C   0  0  0  0  0  0  0  0  0  0  0  0
    5.5216   -1.2551    0.7269 C   0  0  0  0  0  0  0  0  0  0  0  0
    6.8727   -1.2108    0.8309 F   0  0  0  0  0  0  0  0  0  0  0  0
    4.7395   -0.2867    1.3615 C   0  0  0  0  0  0  0  0  0  0  0  0
    3.3460   -0.3312    1.2568 C   0  0  0  0  0  0  0  0  0  0  0  0
   -0.9298    3.9189    2.4950 H   0  0  0  0  0  0  0  0  0  0  0  0
   -0.0304    5.2642    1.7045 H   0  0  0  0  0  0  0  0  0  0  0  0
    2.5751    3.2313   -1.6171 H   0  0  0  0  0  0  0  0  0  0  0  0
    2.0651    0.8070   -1.4662 H   0  0  0  0  0  0  0  0  0  0  0  0
   -1.5238   -2.9361    0.1429 H   0  0  0  0  0  0  0  0  0  0  0  0
   -2.0637    0.8876    0.3205 H   0  0  0  0  0  0  0  0  0  0  0  0
   -3.0045   -1.4006    1.5909 H   0  0  0  0  0  0  0  0  0  0  0  0
   -3.9549    0.0557    1.1954 H   0  0  0  0  0  0  0  0  0  0  0  0
   -5.1237   -1.9873    0.4378 H   0  0  0  0  0  0  0  0  0  0  0  0
   -3.7333   -2.4581   -0.5762 H   0  0  0  0  0  0  0  0  0  0  0  0
   -5.6741   -0.2853   -0.9566 H   0  0  0  0  0  0  0  0  0  0  0  0
   -4.1062    1.2259   -1.4113 H   0  0  0  0  0  0  0  0  0  0  0  0
   -4.0264    0.2800   -2.9322 H   0  0  0  0  0  0  0  0  0  0  0  0
   -1.7529    0.6517   -2.0122 H   0  0  0  0  0  0  0  0  0  0  0  0
   -2.1671   -1.0968   -2.0136 H   0  0  0  0  0  0  0  0  0  0  0  0
    3.0597   -3.1173   -0.6917 H   0  0  0  0  0  0  0  0  0  0  0  0
    5.5148   -3.0285   -0.4946 H   0  0  0  0  0  0  0  0  0  0  0  0
    5.2119    0.4956    1.9416 H   0  0  0  0  0  0  0  0  0  0  0  0
    2.7595    0.4114    1.7815 H   0  0  0  0  0  0  0  0  0  0  0  0
  1  2  1  0
  2  3  2  0
  3  4  1  0
  4  5  2  0
  5  6  1  0
  6  7  2  0
  6  8  1  0
  8  9  2  0
  9 10  1  0
 10 11  2  0
 11 12  1  0
 12 13  1  0
 13 14  1  0
 14 15  1  0
 15 16  1  0
 16 17  1  0
 17 18  1  0
  9 19  1  0
 19 20  2  0
 20 21  1  0
 21 22  2  0
 22 23  1  0
 22 24  1  0
 24 25  2  0
  7  2  1  0
 12  8  1  0
 18 13  1  0
 25 19  1  0
  1 26  1  0
  1 27  1  0
  4 28  1  0
  5 29  1  0
 11 30  1  0
 13 31  1  0
 14 32  1  0
 14 33  1  0
 15 34  1  0
 15 35  1  0
 16 36  1  0
 17 37  1  0
 17 38  1  0
 18 39  1  0
 18 40  1  0
 20 41  1  0
 21 42  1  0
 24 43  1  0
 25 44  1  0
M  END
$$$$
