
     RDKit          3D

 37 40  0  0  0  0  0  0  0  0999 V2000
    1.1754    1.1270   -0.8468 C   0  0  2  0  0  0  0  0  0  0  0  0
   -0.0284    0.2230   -0.4963 C   0  0  0  0  0  0  0  0  0  0  0  0
   -0.7985    0.6387    0.7781 C   0  0  1  0  0  0  0  0  0  0  0  0
   -1.4577    1.9867    0.6042 C   0  0  0  0  0  0  0  0  0  0  0  0
   -0.8063    3.0386    0.8383 O   0  0  0  0  0  0  0  0  0  0  0  0
   -2.7775    2.0883    0.1533 O   0  0  0  0  0  0  0  0  0  0  0  0
   -3.6339    0.9847    0.0952 C   0  0  0  0  0  0  0  0  0  0  0  0
   -3.2141   -0.2695    0.5725 C   0  0  0  0  0  0  0  0  0  0  0  0
   -4.1061   -1.3551    0.5498 C   0  0  0  0  0  0  0  0  0  0  0  0
   -5.3978   -1.1902    0.0403 C   0  0  0  0  0  0  0  0  0  0  0  0
   -5.8069    0.0553   -0.4440 C   0  0  0  0  0  0  0  0  0  0  0  0
   -4.9274    1.1413   -0.4149 C   0  0  0  0  0  0  0  0  0  0  0  0
   -1.8370   -0.4103    1.0873 C   0  0  0  0  0  0  0  0  0  0  0  0
   -1.5020   -1.4400    1.7338 O   0  0  0  0  0  0  0  0  0  0  0  0
    1.7526    0.6857   -2.1693 C   0  0  0  0  0  0  0  0  0  0  0  0
    1.2208    1.0743   -3.2427 O   0  0  0  0  0  0  0  0  0  0  0  0
    2.8273   -0.2084   -2.2237 O   0  0  0  0  0  0  0  0  0  0  0  0
    3.5646   -0.5616   -1.0891 C   0  0  0  0  0  0  0  0  0  0  0  0
    4.5774   -1.5214   -1.1942 C   0  0  0  0  0  0  0  0  0  0  0  0
    5.3437   -1.8587   -0.0747 C   0  0  0  0  0  0  0  0  0  0  0  0
    5.1035   -1.2342    1.1525 C   0  0  0  0  0  0  0  0  0  0  0  0
    4.0932   -0.2741    1.2652 C   0  0  0  0  0  0  0  0  0  0  0  0
    3.3130    0.0607    0.1459 C   0  0  0  0  0  0  0  0  0  0  0  0
    2.2354    1.0656    0.2262 C   0  0  0  0  0  0  0  0  0  0  0  0
    2.1786    1.8589    1.2048 O   0  0  0  0  0  0  0  0  0  0  0  0
    0.8376    2.1793   -0.9609 H   0  0  0  0  0  0  0  0  0  0  0  0
    0.3394   -0.8213   -0.3728 H   0  0  0  0  0  0  0  0  0  0  0  0
   -0.7399    0.2177   -1.3534 H   0  0  0  0  0  0  0  0  0  0  0  0
   -0.1017    0.6887    1.6421 H   0  0  0  0  0  0  0  0  0  0  0  0
   -3.8028   -2.3283    0.9147 H   0  0  0  0  0  0  0  0  0  0  0  0
   -6.0815   -2.0290    0.0192 H   0  0  0  0  0  0  0  0  0  0  0  0
   -6.8073    0.1803   -0.8378 H   0  0  0  0  0  0  0  0  0  0  0  0
   -5.2525    2.1066   -0.7816 H   0  0  0  0  0  0  0  0  0  0  0  0
    4.7737   -2.0007   -2.1447 H   0  0  0  0  0  0  0  0  0  0  0  0
    6.1269   -2.6009   -0.1594 H   0  0  0  0  0  0  0  0  0  0  0  0
    5.7001   -1.4949    2.0171 H   0  0  0  0  0  0  0  0  0  0  0  0
    3.9161    0.1974    2.2238 H   0  0  0  0  0  0  0  0  0  0  0  0
  1  2  1  0
  2  3  1  0
  3  4  1  0
  4  5  2  0
  4  6  1  0
  6  7  1  0
  7  8  2  0
  8  9  1  0
  9 10  2  0
 10 11  1  0
 11 12  2  0
  8 13  1  0
 13 14  2  0
  1 15  1  0
 15 16  2  0
 15 17  1  0
 17 18  1  0
 18 19  2  0
 19 20  1  0
 20 21  2  0
 21 22  1  0
 22 23  2  0
 23 24  1  0
 24 25  2  0
 24  1  1  0
 13  3  1  0
 23 18  1  0
 12  7  1  0
  1 26  1  6
  2 27  1  0
  2 28  1  0
  3 29  1  1
  9 30  1  0
 10 31  1  0
 11 32  1  0
 12 33  1  0
 19 34  1  0
 20 35  1  0
 21 36  1  0
 22 37  1  0
M  END
$$$$
