
     RDKit          3D

 58 61  0  0  0  0  0  0  0  0999 V2000
   -0.8051   -1.3105    0.5676 C   0  0  1  0  0  0  0  0  0  0  0  0
   -0.2154   -1.2202   -0.8258 C   0  0  0  0  0  0  0  0  0  0  0  0
    0.4385    0.1316   -0.8259 C   0  0  2  0  0  0  0  0  0  0  0  0
    1.8220   -0.0079   -0.4984 O   0  0  0  0  0  0  0  0  0  0  0  0
    2.7445    1.0402   -0.6016 C   0  0  0  0  0  0  0  0  0  0  0  0
    2.3714    2.1738   -1.0108 O   0  0  0  0  0  0  0  0  0  0  0  0
    4.1430    0.8216   -0.1696 C   0  0  0  0  0  0  0  0  0  0  0  0
    4.3755   -0.0826    0.8824 C   0  0  0  0  0  0  0  0  0  0  0  0
    5.6610   -0.2707    1.3899 C   0  0  0  0  0  0  0  0  0  0  0  0
    6.7332    0.4386    0.8548 C   0  0  0  0  0  0  0  0  0  0  0  0
    6.5286    1.3252   -0.2030 C   0  0  0  0  0  0  0  0  0  0  0  0
    5.2406    1.5206   -0.7416 C   0  0  0  0  0  0  0  0  0  0  0  0
    5.0638    2.3619   -1.8995 N   0  0  0  0  0  0  0  0  0  0  0  0
    5.9674    3.4582   -2.2334 C   0  0  0  0  0  0  0  0  0  0  0  0
   -0.3100    0.8887    0.2845 C   0  0  1  0  0  0  0  0  0  0  0  0
   -1.1729    2.0244   -0.2762 C   0  0  0  0  0  0  0  0  0  0  0  0
   -2.1980    1.4863   -1.0793 O   0  0  0  0  0  0  0  0  0  0  0  0
   -3.1469    2.7720   -1.6740 P   0  0  0  0  0  5  0  0  0  0  0  0
   -2.1662    3.8337   -2.5558 O   0  0  0  0  0  0  0  0  0  0  0  0
   -4.2030    2.2192   -2.6053 O   0  0  0  0  0  0  0  0  0  0  0  0
   -3.8779    3.6426   -0.4036 O   0  0  0  0  0  0  0  0  0  0  0  0
   -4.8935    2.5763    0.4537 P   0  0  0  0  0  5  0  0  0  0  0  0
   -5.6370    3.4423    1.7028 O   0  0  0  0  0  0  0  0  0  0  0  0
   -3.9964    1.3105    1.1310 O   0  0  0  0  0  0  0  0  0  0  0  0
   -5.9659    2.0157   -0.4549 O   0  0  0  0  0  0  0  0  0  0  0  0
   -1.1303   -0.0115    1.0001 O   0  0  0  0  0  0  0  0  0  0  0  0
   -1.9996   -2.1562    0.5735 N   0  0  0  0  0  0  0  0  0  0  0  0
   -3.2334   -1.8649    0.0832 C   0  0  0  0  0  0  0  0  0  0  0  0
   -4.1118   -2.9011    0.1798 N   0  0  0  0  0  0  0  0  0  0  0  0
   -3.3678   -3.8680    0.7498 C   0  0  0  0  0  0  0  0  0  0  0  0
   -3.7168   -5.1718    1.0829 C   0  0  0  0  0  0  0  0  0  0  0  0
   -5.0317   -5.6799    0.8572 N   0  0  0  0  0  0  0  0  0  0  0  0
   -2.7502   -5.9641    1.6361 N   0  0  0  0  0  0  0  0  0  0  0  0
   -1.4793   -5.4947    1.8544 C   0  0  0  0  0  0  0  0  0  0  0  0
   -1.1468   -4.2110    1.5209 N   0  0  0  0  0  0  0  0  0  0  0  0
   -2.1094   -3.4274    0.9771 C   0  0  0  0  0  0  0  0  0  0  0  0
   -0.0439   -1.7298    1.2644 H   0  0  0  0  0  0  0  0  0  0  0  0
    0.5054   -2.0444   -1.0209 H   0  0  0  0  0  0  0  0  0  0  0  0
   -1.0186   -1.2425   -1.5960 H   0  0  0  0  0  0  0  0  0  0  0  0
    0.3367    0.6030   -1.8305 H   0  0  0  0  0  0  0  0  0  0  0  0
    3.5545   -0.6266    1.3337 H   0  0  0  0  0  0  0  0  0  0  0  0
    5.8241   -0.9616    2.2071 H   0  0  0  0  0  0  0  0  0  0  0  0
    7.7292    0.2924    1.2527 H   0  0  0  0  0  0  0  0  0  0  0  0
    7.3876    1.8368   -0.6143 H   0  0  0  0  0  0  0  0  0  0  0  0
    4.2571    2.1984   -2.5416 H   0  0  0  0  0  0  0  0  0  0  0  0
    6.9514    3.0574   -2.5535 H   0  0  0  0  0  0  0  0  0  0  0  0
    6.0961    4.1237   -1.3539 H   0  0  0  0  0  0  0  0  0  0  0  0
    5.5442    4.0526   -3.0706 H   0  0  0  0  0  0  0  0  0  0  0  0
    0.4179    1.3364    0.9970 H   0  0  0  0  0  0  0  0  0  0  0  0
   -0.5193    2.7089   -0.8632 H   0  0  0  0  0  0  0  0  0  0  0  0
   -1.6008    2.5865    0.5846 H   0  0  0  0  0  0  0  0  0  0  0  0
   -1.7194    3.2634   -3.2312 H   0  0  0  0  0  0  0  0  0  0  0  0
   -6.1936    2.7754    2.1787 H   0  0  0  0  0  0  0  0  0  0  0  0
   -4.6661    0.7319    1.5753 H   0  0  0  0  0  0  0  0  0  0  0  0
   -3.4918   -0.9129   -0.3606 H   0  0  0  0  0  0  0  0  0  0  0  0
   -5.7748   -5.0804    0.4341 H   0  0  0  0  0  0  0  0  0  0  0  0
   -5.2651   -6.6642    1.1157 H   0  0  0  0  0  0  0  0  0  0  0  0
   -0.7348   -6.1453    2.2921 H   0  0  0  0  0  0  0  0  0  0  0  0
  1  2  1  0
  2  3  1  0
  3  4  1  0
  4  5  1  0
  5  6  2  0
  5  7  1  0
  7  8  2  0
  8  9  1  0
  9 10  2  0
 10 11  1  0
 11 12  2  0
 12 13  1  0
 13 14  1  0
  3 15  1  0
 15 16  1  0
 16 17  1  0
 17 18  1  0
 18 19  1  0
 18 20  2  0
 18 21  1  0
 21 22  1  0
 22 23  1  0
 22 24  1  0
 22 25  2  0
 15 26  1  0
  1 27  1  0
 27 28  1  0
 28 29  2  0
 29 30  1  0
 30 31  2  0
 31 32  1  0
 31 33  1  0
 33 34  2  0
 34 35  1  0
 35 36  2  0
 26  1  1  0
 36 27  1  0
 12  7  1  0
 36 30  1  0
  1 37  1  1
  2 38  1  0
  2 39  1  0
  3 40  1  6
  8 41  1  0
  9 42  1  0
 10 43  1  0
 11 44  1  0
 13 45  1  0
 14 46  1  0
 14 47  1  0
 14 48  1  0
 15 49  1  1
 16 50  1  0
 16 51  1  0
 19 52  1  0
 23 53  1  0
 24 54  1  0
 28 55  1  0
 32 56  1  0
 32 57  1  0
 34 58  1  0
M  END
$$$$
