
     RDKit          3D

 57 58  0  0  0  0  0  0  0  0999 V2000
    2.7053    2.8492   -0.6130 C   0  0  0  0  0  0  0  0  0  0  0  0
    3.0120    1.5488    0.1281 C   0  0  0  0  0  0  0  0  0  0  0  0
    4.2580    0.9207   -0.3745 N   0  0  0  0  0  0  0  0  0  0  0  0
    4.8248   -0.0287    0.6109 C   0  0  0  0  0  0  0  0  0  0  0  0
    5.7446    0.7025    1.5847 C   0  0  0  0  0  0  0  0  0  0  0  0
    4.0908    0.2931   -1.7076 C   0  0  0  0  0  0  0  0  0  0  0  0
    3.1374   -0.8305   -1.6938 C   0  0  0  0  0  0  0  0  0  0  0  0
    2.3446   -1.7375   -1.6716 C   0  0  0  0  0  0  0  0  0  0  0  0
    1.3596   -2.8220   -1.6302 C   0  0  0  0  0  0  0  0  0  0  0  0
    0.0493   -2.2825   -1.4801 O   0  0  0  0  0  0  0  0  0  0  0  0
   -0.3948   -1.6600   -0.3057 C   0  0  0  0  0  0  0  0  0  0  0  0
    0.3292   -1.6708    0.7291 O   0  0  0  0  0  0  0  0  0  0  0  0
   -1.7643   -1.0147   -0.2743 C   0  0  0  0  0  0  0  0  0  0  0  0
   -2.1669   -0.8342   -1.6160 O   0  0  0  0  0  0  0  0  0  0  0  0
   -1.6820    0.3926    0.4338 C   0  0  0  0  0  0  0  0  0  0  0  0
   -3.0781    0.9719    0.8101 C   0  0  0  0  0  0  0  0  0  0  0  0
   -3.0023    2.4785    1.0762 C   0  0  0  0  0  0  0  0  0  0  0  0
   -2.5645    3.2584   -0.1789 C   0  0  0  0  0  0  0  0  0  0  0  0
   -1.6812    2.4346   -1.1352 C   0  0  0  0  0  0  0  0  0  0  0  0
   -0.8247    1.4126   -0.3791 C   0  0  0  0  0  0  0  0  0  0  0  0
   -2.7001   -1.9944    0.4517 C   0  0  0  0  0  0  0  0  0  0  0  0
   -3.6076   -2.8058   -0.2654 C   0  0  0  0  0  0  0  0  0  0  0  0
   -4.4269   -3.7222    0.4005 C   0  0  0  0  0  0  0  0  0  0  0  0
   -4.3409   -3.8635    1.7855 C   0  0  0  0  0  0  0  0  0  0  0  0
   -3.4256   -3.0980    2.5076 C   0  0  0  0  0  0  0  0  0  0  0  0
   -2.6031   -2.1802    1.8487 C   0  0  0  0  0  0  0  0  0  0  0  0
    2.3332    2.6413   -1.6372 H   0  0  0  0  0  0  0  0  0  0  0  0
    1.9142    3.4093   -0.0711 H   0  0  0  0  0  0  0  0  0  0  0  0
    3.6150    3.4838   -0.6679 H   0  0  0  0  0  0  0  0  0  0  0  0
    3.1194    1.8106    1.2029 H   0  0  0  0  0  0  0  0  0  0  0  0
    2.1465    0.8559    0.0539 H   0  0  0  0  0  0  0  0  0  0  0  0
    4.0215   -0.5574    1.1729 H   0  0  0  0  0  0  0  0  0  0  0  0
    5.4406   -0.8093    0.1095 H   0  0  0  0  0  0  0  0  0  0  0  0
    6.5452    1.2317    1.0256 H   0  0  0  0  0  0  0  0  0  0  0  0
    5.1775    1.4384    2.1907 H   0  0  0  0  0  0  0  0  0  0  0  0
    6.2151   -0.0303    2.2738 H   0  0  0  0  0  0  0  0  0  0  0  0
    5.0726   -0.0765   -2.0738 H   0  0  0  0  0  0  0  0  0  0  0  0
    3.7524    1.0436   -2.4501 H   0  0  0  0  0  0  0  0  0  0  0  0
    1.4102   -3.3875   -2.5832 H   0  0  0  0  0  0  0  0  0  0  0  0
    1.5918   -3.5135   -0.7925 H   0  0  0  0  0  0  0  0  0  0  0  0
   -3.0868   -0.4662   -1.6258 H   0  0  0  0  0  0  0  0  0  0  0  0
   -1.1467    0.2611    1.4001 H   0  0  0  0  0  0  0  0  0  0  0  0
   -3.4579    0.4713    1.7263 H   0  0  0  0  0  0  0  0  0  0  0  0
   -3.8254    0.7979    0.0091 H   0  0  0  0  0  0  0  0  0  0  0  0
   -2.2774    2.6630    1.8998 H   0  0  0  0  0  0  0  0  0  0  0  0
   -3.9945    2.8478    1.4149 H   0  0  0  0  0  0  0  0  0  0  0  0
   -3.4652    3.5995   -0.7343 H   0  0  0  0  0  0  0  0  0  0  0  0
   -2.0109    4.1675    0.1426 H   0  0  0  0  0  0  0  0  0  0  0  0
   -1.0199    3.1197   -1.7088 H   0  0  0  0  0  0  0  0  0  0  0  0
   -2.3240    1.9023   -1.8688 H   0  0  0  0  0  0  0  0  0  0  0  0
   -0.1547    0.8997   -1.1019 H   0  0  0  0  0  0  0  0  0  0  0  0
   -0.1646    1.9702    0.3212 H   0  0  0  0  0  0  0  0  0  0  0  0
   -3.6853   -2.7447   -1.3425 H   0  0  0  0  0  0  0  0  0  0  0  0
   -5.1246   -4.3301   -0.1609 H   0  0  0  0  0  0  0  0  0  0  0  0
   -4.9748   -4.5757    2.2978 H   0  0  0  0  0  0  0  0  0  0  0  0
   -3.3470   -3.2209    3.5802 H   0  0  0  0  0  0  0  0  0  0  0  0
   -1.8885   -1.6205    2.4357 H   0  0  0  0  0  0  0  0  0  0  0  0
  1  2  1  0
  2  3  1  0
  3  4  1  0
  4  5  1  0
  3  6  1  0
  6  7  1  0
  7  8  3  0
  8  9  1  0
  9 10  1  0
 10 11  1  0
 11 12  2  0
 11 13  1  0
 13 14  1  0
 13 15  1  0
 15 16  1  0
 16 17  1  0
 17 18  1  0
 18 19  1  0
 19 20  1  0
 13 21  1  0
 21 22  2  0
 22 23  1  0
 23 24  2  0
 24 25  1  0
 25 26  2  0
 20 15  1  0
 26 21  1  0
  1 27  1  0
  1 28  1  0
  1 29  1  0
  2 30  1  0
  2 31  1  0
  4 32  1  0
  4 33  1  0
  5 34  1  0
  5 35  1  0
  5 36  1  0
  6 37  1  0
  6 38  1  0
  9 39  1  0
  9 40  1  0
 14 41  1  0
 15 42  1  0
 16 43  1  0
 16 44  1  0
 17 45  1  0
 17 46  1  0
 18 47  1  0
 18 48  1  0
 19 49  1  0
 19 50  1  0
 20 51  1  0
 20 52  1  0
 22 53  1  0
 23 54  1  0
 24 55  1  0
 25 56  1  0
 26 57  1  0
M  END
$$$$
