
     RDKit          3D

 36 37  0  0  0  0  0  0  0  0999 V2000
   -1.7945   -0.7297   -1.3061 C   0  0  1  0  0  0  0  0  0  0  0  0
   -2.1969   -0.9189   -2.6424 O   0  0  0  0  0  0  0  0  0  0  0  0
   -0.4100   -1.2767   -1.0637 C   0  0  0  0  0  0  0  0  0  0  0  0
    0.4567   -0.0306   -1.1047 C   0  0  1  0  0  0  0  0  0  0  0  0
   -0.3170    1.0650   -0.6754 O   0  0  0  0  0  0  0  0  0  0  0  0
   -1.6677    0.7667   -0.9622 C   0  0  2  0  0  0  0  0  0  0  0  0
   -2.5302    1.1533    0.2438 C   0  0  0  0  0  0  0  0  0  0  0  0
   -3.8904    0.9823   -0.0794 O   0  0  0  0  0  0  0  0  0  0  0  0
   -4.8177    1.2911    1.3177 P   0  0  0  0  0  5  0  0  0  0  0  0
   -4.4471    0.1604    2.5228 O   0  0  0  0  0  0  0  0  0  0  0  0
   -4.5153    2.8560    1.8902 O   0  0  0  0  0  0  0  0  0  0  0  0
   -6.2832    1.1742    0.9670 O   0  0  0  0  0  0  0  0  0  0  0  0
    1.6933   -0.1821   -0.2458 C   0  0  0  0  0  0  0  0  0  0  0  0
    2.9289   -0.4726   -0.8508 C   0  0  0  0  0  0  0  0  0  0  0  0
    4.0846   -0.6492   -0.0729 C   0  0  0  0  0  0  0  0  0  0  0  0
    5.4064   -0.9261   -0.7294 C   0  0  0  0  0  0  0  0  0  0  0  0
    4.0034   -0.5208    1.3226 C   0  0  0  0  0  0  0  0  0  0  0  0
    5.1110   -0.6651    2.0939 F   0  0  0  0  0  0  0  0  0  0  0  0
    2.7765   -0.2480    1.9316 C   0  0  0  0  0  0  0  0  0  0  0  0
    1.6242   -0.0860    1.1583 C   0  0  0  0  0  0  0  0  0  0  0  0
    0.4441    0.1601    1.7814 F   0  0  0  0  0  0  0  0  0  0  0  0
   -2.5224   -1.2550   -0.6479 H   0  0  0  0  0  0  0  0  0  0  0  0
   -1.5248   -0.4854   -3.2321 H   0  0  0  0  0  0  0  0  0  0  0  0
   -0.3747   -1.7572   -0.0601 H   0  0  0  0  0  0  0  0  0  0  0  0
   -0.1009   -2.0169   -1.8344 H   0  0  0  0  0  0  0  0  0  0  0  0
    0.7558    0.1619   -2.1609 H   0  0  0  0  0  0  0  0  0  0  0  0
   -1.9860    1.3923   -1.8263 H   0  0  0  0  0  0  0  0  0  0  0  0
   -2.2325    0.5175    1.1096 H   0  0  0  0  0  0  0  0  0  0  0  0
   -2.3259    2.2208    0.4851 H   0  0  0  0  0  0  0  0  0  0  0  0
   -4.5416   -0.7205    2.0799 H   0  0  0  0  0  0  0  0  0  0  0  0
   -3.7568    2.7561    2.5192 H   0  0  0  0  0  0  0  0  0  0  0  0
    2.9908   -0.5625   -1.9289 H   0  0  0  0  0  0  0  0  0  0  0  0
    5.2752   -1.2376   -1.7876 H   0  0  0  0  0  0  0  0  0  0  0  0
    5.9345   -1.7439   -0.1949 H   0  0  0  0  0  0  0  0  0  0  0  0
    6.0324   -0.0097   -0.7017 H   0  0  0  0  0  0  0  0  0  0  0  0
    2.7178   -0.1632    3.0092 H   0  0  0  0  0  0  0  0  0  0  0  0
  1  2  1  0
  1  3  1  0
  3  4  1  0
  4  5  1  0
  5  6  1  0
  6  7  1  0
  7  8  1  0
  8  9  1  0
  9 10  1  0
  9 11  1  0
  9 12  2  0
  4 13  1  0
 13 14  2  0
 14 15  1  0
 15 16  1  0
 15 17  2  0
 17 18  1  0
 17 19  1  0
 19 20  2  0
 20 21  1  0
  6  1  1  0
 20 13  1  0
  1 22  1  1
  2 23  1  0
  3 24  1  0
  3 25  1  0
  4 26  1  6
  6 27  1  6
  7 28  1  0
  7 29  1  0
 10 30  1  0
 11 31  1  0
 14 32  1  0
 16 33  1  0
 16 34  1  0
 16 35  1  0
 19 36  1  0
M  END
$$$$
