
     RDKit          3D

 45 52  0  0  0  0  0  0  0  0999 V2000
    0.5180    2.7408    0.1985 C   0  0  1  0  0  0  0  0  0  0  0  0
    0.2099    3.0403   -1.2634 C   0  0  0  0  0  0  0  0  0  0  0  0
   -1.2554    2.7129   -1.4038 C   0  0  0  0  0  0  0  0  0  0  0  0
   -1.6671    2.2526   -0.0108 C   0  0  2  0  0  0  0  0  0  0  0  0
   -0.6983    2.7029    0.9048 O   0  0  0  0  0  0  0  0  0  0  0  0
   -1.7572    0.7863    0.0469 N   0  0  0  0  0  0  0  0  0  0  0  0
   -2.8515    0.0087   -0.1346 C   0  0  0  0  0  0  0  0  0  0  0  0
   -2.5262   -1.3414   -0.0932 C   0  0  0  0  0  0  0  0  0  0  0  0
   -3.4996   -2.3222   -0.3100 C   0  0  0  0  0  0  0  0  0  0  0  0
   -4.8216   -1.9101   -0.5455 C   0  0  0  0  0  0  0  0  0  0  0  0
   -5.1509   -0.5419   -0.5800 C   0  0  0  0  0  0  0  0  0  0  0  0
   -4.1619    0.4334   -0.3819 C   0  0  0  0  0  0  0  0  0  0  0  0
   -1.1520   -1.4067    0.1162 C   0  0  0  0  0  0  0  0  0  0  0  0
   -0.2049   -2.4507    0.2310 C   0  0  0  0  0  0  0  0  0  0  0  0
   -0.3242   -3.9116    0.2921 C   0  0  0  0  0  0  0  0  0  0  0  0
   -1.3893   -4.5770    0.2914 O   0  0  0  0  0  0  0  0  0  0  0  0
    0.9579   -4.5092    0.4371 N   0  0  0  0  0  0  0  0  0  0  0  0
    1.8710   -3.4211    0.5024 C   0  0  0  0  0  0  0  0  0  0  0  0
    3.0981   -3.5744    0.7212 O   0  0  0  0  0  0  0  0  0  0  0  0
    1.1596   -2.1458    0.3617 C   0  0  0  0  0  0  0  0  0  0  0  0
    1.5813   -0.7960    0.3780 C   0  0  0  0  0  0  0  0  0  0  0  0
    2.8125   -0.1486    0.4181 C   0  0  0  0  0  0  0  0  0  0  0  0
    2.5394    1.2132    0.3818 C   0  0  0  0  0  0  0  0  0  0  0  0
    3.5690    2.1607    0.3586 C   0  0  0  0  0  0  0  0  0  0  0  0
    4.8950    1.7027    0.3823 C   0  0  0  0  0  0  0  0  0  0  0  0
    5.1735    0.3232    0.4119 C   0  0  0  0  0  0  0  0  0  0  0  0
    4.1303   -0.6174    0.4209 C   0  0  0  0  0  0  0  0  0  0  0  0
    1.2062    1.4485    0.3308 N   0  0  0  0  0  0  0  0  0  0  0  0
    0.6345    0.2226    0.3068 C   0  0  0  0  0  0  0  0  0  0  0  0
   -0.7277   -0.0818    0.1763 C   0  0  0  0  0  0  0  0  0  0  0  0
    1.1409    3.5525    0.6288 H   0  0  0  0  0  0  0  0  0  0  0  0
    0.8301    2.4272   -1.9543 H   0  0  0  0  0  0  0  0  0  0  0  0
    0.3845    4.1175   -1.4792 H   0  0  0  0  0  0  0  0  0  0  0  0
   -1.8260    3.6236   -1.6909 H   0  0  0  0  0  0  0  0  0  0  0  0
   -1.4227    1.9238   -2.1701 H   0  0  0  0  0  0  0  0  0  0  0  0
   -2.6408    2.7075    0.2665 H   0  0  0  0  0  0  0  0  0  0  0  0
   -3.2731   -3.3708   -0.3261 H   0  0  0  0  0  0  0  0  0  0  0  0
   -5.5922   -2.6509   -0.7150 H   0  0  0  0  0  0  0  0  0  0  0  0
   -6.1723   -0.2399   -0.7722 H   0  0  0  0  0  0  0  0  0  0  0  0
   -4.4217    1.4813   -0.4325 H   0  0  0  0  0  0  0  0  0  0  0  0
    1.1725   -5.5234    0.5619 H   0  0  0  0  0  0  0  0  0  0  0  0
    3.3668    3.2216    0.3136 H   0  0  0  0  0  0  0  0  0  0  0  0
    5.7097    2.4150    0.3659 H   0  0  0  0  0  0  0  0  0  0  0  0
    6.2014   -0.0158    0.4147 H   0  0  0  0  0  0  0  0  0  0  0  0
    4.3744   -1.6621    0.4065 H   0  0  0  0  0  0  0  0  0  0  0  0
  1  2  1  0
  2  3  1  0
  3  4  1  0
  4  5  1  0
  4  6  1  0
  6  7  1  0
  7  8  2  0
  8  9  1  0
  9 10  2  0
 10 11  1  0
 11 12  2  0
  8 13  1  0
 13 14  2  0
 14 15  1  0
 15 16  2  0
 15 17  1  0
 17 18  1  0
 18 19  2  0
 18 20  1  0
 20 21  2  0
 21 22  1  0
 22 23  2  0
 23 24  1  0
 24 25  2  0
 25 26  1  0
 26 27  2  0
 23 28  1  0
 28 29  1  0
 29 30  2  0
  5  1  1  0
 30  6  1  0
 28  1  1  0
 12  7  1  0
 30 13  1  0
 20 14  1  0
 29 21  1  0
 27 22  1  0
  1 31  1  1
  2 32  1  0
  2 33  1  0
  3 34  1  0
  3 35  1  0
  4 36  1  1
  9 37  1  0
 10 38  1  0
 11 39  1  0
 12 40  1  0
 17 41  1  0
 24 42  1  0
 25 43  1  0
 26 44  1  0
 27 45  1  0
M  END
$$$$
