
     RDKit          3D

 14 15  0  0  0  0  0  0  0  0999 V2000
   -0.3093    3.0012    0.6811 S   0  0  0  0  0  0  0  0  0  0  0  0
   -0.6289    1.4247    0.3853 C   0  0  0  0  0  0  0  0  0  0  0  0
   -1.9099    0.9558    0.4498 N   0  0  0  0  0  0  0  0  0  0  0  0
   -2.2010   -0.3625    0.2054 C   0  0  0  0  0  0  0  0  0  0  0  0
   -1.2045   -1.2450   -0.1113 N   0  0  0  0  0  0  0  0  0  0  0  0
    0.0673   -0.7806   -0.1755 C   0  0  0  0  0  0  0  0  0  0  0  0
    0.3732    0.5156    0.0623 C   0  0  0  0  0  0  0  0  0  0  0  0
    1.6944    0.6877   -0.0708 N   0  0  0  0  0  0  0  0  0  0  0  0
    2.1499   -0.5491   -0.3937 C   0  0  0  0  0  0  0  0  0  0  0  0
    1.1700   -1.4909   -0.4690 N   0  0  0  0  0  0  0  0  0  0  0  0
   -3.2262   -0.7035    0.2643 H   0  0  0  0  0  0  0  0  0  0  0  0
   -1.4199   -2.2497   -0.2984 H   0  0  0  0  0  0  0  0  0  0  0  0
    2.2507    1.5636    0.0449 H   0  0  0  0  0  0  0  0  0  0  0  0
    3.1941   -0.7673   -0.5746 H   0  0  0  0  0  0  0  0  0  0  0  0
  1  2  2  0
  2  3  1  0
  3  4  2  0
  4  5  1  0
  5  6  1  0
  6  7  2  0
  7  8  1  0
  8  9  1  0
  9 10  2  0
  7  2  1  0
 10  6  1  0
  4 11  1  0
  5 12  1  0
  8 13  1  0
  9 14  1  0
M  END
$$$$
