
     RDKit          3D

 38 40  0  0  0  0  0  0  0  0999 V2000
   -1.9403    3.0088    0.1925 O   0  0  0  0  0  0  0  0  0  0  0  0
   -1.0678    1.9392   -0.0698 C   0  0  1  0  0  0  0  0  0  0  0  0
    0.2231    2.0249    0.7299 C   0  0  1  0  0  0  0  0  0  0  0  0
    0.1560    3.0056    1.7352 O   0  0  0  0  0  0  0  0  0  0  0  0
    0.3467    0.6357    1.3663 C   0  0  1  0  0  0  0  0  0  0  0  0
   -0.6319   -0.2131    0.8134 O   0  0  0  0  0  0  0  0  0  0  0  0
   -1.6821    0.6234    0.3955 C   0  0  2  0  0  0  0  0  0  0  0  0
   -2.4871   -0.0604   -0.7130 C   0  0  0  0  0  0  0  0  0  0  0  0
   -3.0609   -1.2411   -0.2033 O   0  0  0  0  0  0  0  0  0  0  0  0
   -3.9035   -2.0196   -1.4658 P   0  0  0  0  0  5  0  0  0  0  0  0
   -5.0419   -0.9709   -2.1522 O   0  0  0  0  0  0  0  0  0  0  0  0
   -4.7033   -3.3730   -0.8408 O   0  0  0  0  0  0  0  0  0  0  0  0
   -2.9317   -2.4740   -2.5316 O   0  0  0  0  0  0  0  0  0  0  0  0
    1.6810    0.0704    1.1486 N   0  0  0  0  0  4  0  0  0  0  0  0
    2.6717   -0.0497    2.0714 C   0  0  0  0  0  0  0  0  0  0  0  0
    3.8095   -0.5751    1.5494 N   0  0  0  0  0  0  0  0  0  0  0  0
    3.5123   -0.7786    0.2552 C   0  0  0  0  0  0  0  0  0  0  0  0
    2.2385   -0.3893    0.0111 C   0  0  0  0  0  0  0  0  0  0  0  0
    1.6871   -0.4563   -1.2274 N   0  0  0  0  0  0  0  0  0  0  0  0
    2.4525   -0.9487   -2.2514 C   0  0  0  0  0  0  0  0  0  0  0  0
    1.9685   -1.0276   -3.4122 O   0  0  0  0  0  0  0  0  0  0  0  0
    3.7459   -1.3550   -2.0209 N   0  0  0  0  0  0  0  0  0  0  0  0
    4.2998   -1.2754   -0.7728 C   0  0  0  0  0  0  0  0  0  0  0  0
    5.4881   -1.6404   -0.5678 O   0  0  0  0  0  0  0  0  0  0  0  0
   -1.6021    3.7826   -0.3295 H   0  0  0  0  0  0  0  0  0  0  0  0
   -0.8251    1.8927   -1.1587 H   0  0  0  0  0  0  0  0  0  0  0  0
    1.0805    2.2301    0.0448 H   0  0  0  0  0  0  0  0  0  0  0  0
    0.3886    3.8703    1.3066 H   0  0  0  0  0  0  0  0  0  0  0  0
    0.1559    0.7007    2.4627 H   0  0  0  0  0  0  0  0  0  0  0  0
   -2.3572    0.8071    1.2641 H   0  0  0  0  0  0  0  0  0  0  0  0
   -1.8029   -0.2875   -1.5627 H   0  0  0  0  0  0  0  0  0  0  0  0
   -3.2817    0.6431   -1.0507 H   0  0  0  0  0  0  0  0  0  0  0  0
   -5.6242   -0.7021   -1.3974 H   0  0  0  0  0  0  0  0  0  0  0  0
   -5.2711   -3.0156   -0.1122 H   0  0  0  0  0  0  0  0  0  0  0  0
    2.5714    0.2475    3.1076 H   0  0  0  0  0  0  0  0  0  0  0  0
    4.7109   -0.7629    2.0416 H   0  0  0  0  0  0  0  0  0  0  0  0
    0.7093   -0.1389   -1.4037 H   0  0  0  0  0  0  0  0  0  0  0  0
    4.3175   -1.7270   -2.8135 H   0  0  0  0  0  0  0  0  0  0  0  0
  1  2  1  0
  2  3  1  0
  3  4  1  0
  3  5  1  0
  5  6  1  0
  6  7  1  0
  7  8  1  0
  8  9  1  0
  9 10  1  0
 10 11  1  0
 10 12  1  0
 10 13  2  0
  5 14  1  0
 14 15  2  0
 15 16  1  0
 16 17  1  0
 17 18  2  0
 18 19  1  0
 19 20  1  0
 20 21  2  0
 20 22  1  0
 22 23  1  0
 23 24  2  0
  7  2  1  0
 18 14  1  0
 23 17  1  0
  1 25  1  0
  2 26  1  6
  3 27  1  6
  4 28  1  0
  5 29  1  1
  7 30  1  1
  8 31  1  0
  8 32  1  0
 11 33  1  0
 12 34  1  0
 15 35  1  0
 16 36  1  0
 19 37  1  0
 22 38  1  0
M  CHG  1  14   1
M  END
$$$$
