
     RDKit          3D

 41 40  0  0  0  0  0  0  0  0999 V2000
    5.5530   -0.6657   -1.3056 N   0  0  0  0  0  0  0  0  0  0  0  0
    4.7476    0.3130   -0.5721 C   0  0  1  0  0  0  0  0  0  0  0  0
    3.2410    0.0039   -0.7113 C   0  0  0  0  0  0  0  0  0  0  0  0
    2.3651    1.1216   -0.1295 C   0  0  0  0  0  0  0  0  0  0  0  0
    0.9136    0.7990   -0.3165 C   0  0  0  0  0  0  0  0  0  0  0  0
    0.2915    1.2823   -1.3013 O   0  0  0  0  0  0  0  0  0  0  0  0
    0.2511   -0.0890    0.5954 N   0  0  0  0  0  0  0  0  0  0  0  0
   -1.1620   -0.4493    0.4428 C   0  0  1  0  0  0  0  0  0  0  0  0
   -1.5016   -1.6617    1.3269 C   0  0  0  0  0  0  0  0  0  0  0  0
   -3.2185   -2.2426    1.0512 S   0  0  0  0  0  0  0  0  0  0  0  0
   -2.8378   -3.3775   -0.3304 C   0  0  0  0  0  0  0  0  0  0  0  0
   -2.1467   -4.5013    0.1384 O   0  0  0  0  0  0  0  0  0  0  0  0
   -2.0287    0.7297    0.8042 C   0  0  0  0  0  0  0  0  0  0  0  0
   -1.8090    1.3607    1.8745 O   0  0  0  0  0  0  0  0  0  0  0  0
   -3.1175    1.1126   -0.0465 N   0  0  0  0  0  0  0  0  0  0  0  0
   -3.9848    2.2403    0.2890 C   0  0  0  0  0  0  0  0  0  0  0  0
   -5.0366    2.4255   -0.7581 C   0  0  0  0  0  0  0  0  0  0  0  0
   -4.7822    3.2363   -1.8596 O   0  0  0  0  0  0  0  0  0  0  0  0
   -6.1342    1.8138   -0.6653 O   0  0  0  0  0  0  0  0  0  0  0  0
    5.1741    0.3322    0.8695 C   0  0  0  0  0  0  0  0  0  0  0  0
    5.6002    1.5235    1.4486 O   0  0  0  0  0  0  0  0  0  0  0  0
    5.1345   -0.7220    1.5599 O   0  0  0  0  0  0  0  0  0  0  0  0
    5.3459   -0.5715   -2.3267 H   0  0  0  0  0  0  0  0  0  0  0  0
    5.2727   -1.6331   -1.0208 H   0  0  0  0  0  0  0  0  0  0  0  0
    4.9461    1.3177   -1.0086 H   0  0  0  0  0  0  0  0  0  0  0  0
    2.9967   -0.1112   -1.7907 H   0  0  0  0  0  0  0  0  0  0  0  0
    3.0050   -0.9591   -0.2057 H   0  0  0  0  0  0  0  0  0  0  0  0
    2.5989    2.0845   -0.6343 H   0  0  0  0  0  0  0  0  0  0  0  0
    2.5699    1.2449    0.9555 H   0  0  0  0  0  0  0  0  0  0  0  0
    0.8036   -0.4875    1.3890 H   0  0  0  0  0  0  0  0  0  0  0  0
   -1.3364   -0.7328   -0.6171 H   0  0  0  0  0  0  0  0  0  0  0  0
   -0.7818   -2.4849    1.1311 H   0  0  0  0  0  0  0  0  0  0  0  0
   -1.3982   -1.3837    2.3979 H   0  0  0  0  0  0  0  0  0  0  0  0
   -3.7888   -3.6897   -0.8150 H   0  0  0  0  0  0  0  0  0  0  0  0
   -2.2230   -2.8626   -1.0960 H   0  0  0  0  0  0  0  0  0  0  0  0
   -2.7930   -5.0175    0.6868 H   0  0  0  0  0  0  0  0  0  0  0  0
   -3.2920    0.5626   -0.9189 H   0  0  0  0  0  0  0  0  0  0  0  0
   -3.3760    3.1669    0.3623 H   0  0  0  0  0  0  0  0  0  0  0  0
   -4.4686    2.0575    1.2729 H   0  0  0  0  0  0  0  0  0  0  0  0
   -5.4773    3.3581   -2.5864 H   0  0  0  0  0  0  0  0  0  0  0  0
    5.8841    1.5562    2.4205 H   0  0  0  0  0  0  0  0  0  0  0  0
  1  2  1  0
  2  3  1  0
  3  4  1  0
  4  5  1  0
  5  6  2  0
  5  7  1  0
  7  8  1  0
  8  9  1  0
  9 10  1  0
 10 11  1  0
 11 12  1  0
  8 13  1  0
 13 14  2  0
 13 15  1  0
 15 16  1  0
 16 17  1  0
 17 18  1  0
 17 19  2  0
  2 20  1  0
 20 21  1  0
 20 22  2  0
  1 23  1  0
  1 24  1  0
  2 25  1  6
  3 26  1  0
  3 27  1  0
  4 28  1  0
  4 29  1  0
  7 30  1  0
  8 31  1  6
  9 32  1  0
  9 33  1  0
 11 34  1  0
 11 35  1  0
 12 36  1  0
 15 37  1  0
 16 38  1  0
 16 39  1  0
 18 40  1  0
 21 41  1  0
M  END
$$$$
