
     RDKit          3D

 42 43  0  0  0  0  0  0  0  0999 V2000
    0.9225    0.1018   -2.7301 C   0  0  0  0  0  0  0  0  0  0  0  0
    0.9766    1.1281   -1.5870 C   0  0  2  0  0  0  0  0  0  0  0  0
    0.6740    2.3921   -2.1274 O   0  0  0  0  0  0  0  0  0  0  0  0
    2.4064    1.1661   -0.9925 C   0  0  0  0  0  0  0  0  0  0  0  0
    2.7891   -0.1250   -0.5199 O   0  0  0  0  0  0  0  0  0  0  0  0
    4.0148   -0.4495    0.0849 C   0  0  0  0  0  0  0  0  0  0  0  0
    5.0548    0.4868    0.2948 C   0  0  0  0  0  0  0  0  0  0  0  0
    4.9347    1.7833   -0.0829 F   0  0  0  0  0  0  0  0  0  0  0  0
    6.2478    0.0823    0.9063 C   0  0  0  0  0  0  0  0  0  0  0  0
    7.2436    0.9815    1.1065 F   0  0  0  0  0  0  0  0  0  0  0  0
    6.4181   -1.2439    1.3116 C   0  0  0  0  0  0  0  0  0  0  0  0
    7.5762   -1.6291    1.9034 F   0  0  0  0  0  0  0  0  0  0  0  0
    5.3957   -2.1729    1.1070 C   0  0  0  0  0  0  0  0  0  0  0  0
    5.5616   -3.4603    1.5006 F   0  0  0  0  0  0  0  0  0  0  0  0
    4.2013   -1.7772    0.4970 C   0  0  0  0  0  0  0  0  0  0  0  0
    3.2147   -2.6885    0.3039 F   0  0  0  0  0  0  0  0  0  0  0  0
   -0.0701    0.7602   -0.5454 C   0  0  0  0  0  0  0  0  0  0  0  0
    0.2792    0.4364    0.6235 O   0  0  0  0  0  0  0  0  0  0  0  0
   -1.4656    0.8149   -0.8873 N   0  0  0  0  0  0  0  0  0  0  0  0
   -2.5131    0.2461   -0.0830 C   0  0  0  0  0  0  0  0  0  0  0  0
   -2.3206   -0.9464    0.6272 C   0  0  0  0  0  0  0  0  0  0  0  0
   -3.3525   -1.4822    1.3960 C   0  0  0  0  0  0  0  0  0  0  0  0
   -4.6058   -0.8510    1.4620 C   0  0  0  0  0  0  0  0  0  0  0  0
   -4.8373    0.3172    0.6869 C   0  0  0  0  0  0  0  0  0  0  0  0
   -3.7719    0.8600   -0.0597 C   0  0  0  0  0  0  0  0  0  0  0  0
   -6.1884    1.0043    0.6536 C   0  0  0  0  0  0  0  0  0  0  0  0
   -7.2072    0.0695    0.6001 F   0  0  0  0  0  0  0  0  0  0  0  0
   -6.3112    1.8183   -0.4599 F   0  0  0  0  0  0  0  0  0  0  0  0
   -6.3373    1.7851    1.7847 F   0  0  0  0  0  0  0  0  0  0  0  0
   -5.6197   -1.4097    2.3154 N   0  0  0  0  0  4  0  0  0  0  0  0
   -6.3628   -0.5954    3.1379 O   0  0  0  0  0  1  0  0  0  0  0  0
   -5.7004   -2.6468    2.4631 O   0  0  0  0  0  0  0  0  0  0  0  0
    1.0946   -0.9280   -2.3486 H   0  0  0  0  0  0  0  0  0  0  0  0
   -0.0693    0.1273   -3.2304 H   0  0  0  0  0  0  0  0  0  0  0  0
    1.6958    0.3320   -3.4943 H   0  0  0  0  0  0  0  0  0  0  0  0
    0.6746    3.0497   -1.3823 H   0  0  0  0  0  0  0  0  0  0  0  0
    3.1186    1.4976   -1.7797 H   0  0  0  0  0  0  0  0  0  0  0  0
    2.4364    1.8937   -0.1518 H   0  0  0  0  0  0  0  0  0  0  0  0
   -1.7415    1.3627   -1.7336 H   0  0  0  0  0  0  0  0  0  0  0  0
   -1.3767   -1.4731    0.5805 H   0  0  0  0  0  0  0  0  0  0  0  0
   -3.1675   -2.3885    1.9590 H   0  0  0  0  0  0  0  0  0  0  0  0
   -3.9123    1.7702   -0.6293 H   0  0  0  0  0  0  0  0  0  0  0  0
  1  2  1  0
  2  3  1  6
  2  4  1  0
  4  5  1  0
  5  6  1  0
  6  7  2  0
  7  8  1  0
  7  9  1  0
  9 10  1  0
  9 11  2  0
 11 12  1  0
 11 13  1  0
 13 14  1  0
 13 15  2  0
 15 16  1  0
  2 17  1  0
 17 18  2  0
 17 19  1  0
 19 20  1  0
 20 21  2  0
 21 22  1  0
 22 23  2  0
 23 24  1  0
 24 25  2  0
 24 26  1  0
 26 27  1  0
 26 28  1  0
 26 29  1  0
 23 30  1  0
 30 31  1  0
 30 32  2  0
 15  6  1  0
 25 20  1  0
  1 33  1  0
  1 34  1  0
  1 35  1  0
  3 36  1  0
  4 37  1  0
  4 38  1  0
 19 39  1  0
 21 40  1  0
 22 41  1  0
 25 42  1  0
M  CHG  2  30   1  31  -1
M  END
$$$$
