
     RDKit          3D

 12 11  0  0  0  0  0  0  0  0999 V2000
    2.1773   -0.8587   -1.3806 O   0  0  0  0  0  0  0  0  0  0  0  0
    1.3840   -0.3029   -0.3814 C   0  0  0  0  0  0  0  0  0  0  0  0
    1.8696    0.5669    0.3907 O   0  0  0  0  0  0  0  0  0  0  0  0
   -0.0158   -0.7333   -0.2351 C   0  0  0  0  0  0  0  0  0  0  0  0
   -0.4862   -1.5848   -1.0363 O   0  0  0  0  0  0  0  0  0  0  0  0
   -0.9071   -0.1493    0.8215 C   0  0  0  0  0  0  0  0  0  0  0  0
   -1.5055    1.1323    0.3385 C   0  0  0  0  0  0  0  0  0  0  0  0
   -2.6575    1.1125   -0.4375 O   0  0  0  0  0  1  0  0  0  0  0  0
   -0.9464    2.2305    0.5974 O   0  0  0  0  0  0  0  0  0  0  0  0
    3.1426   -0.5740   -1.4965 H   0  0  0  0  0  0  0  0  0  0  0  0
   -1.7224   -0.8651    1.0625 H   0  0  0  0  0  0  0  0  0  0  0  0
   -0.3325    0.0258    1.7568 H   0  0  0  0  0  0  0  0  0  0  0  0
  1  2  1  0
  2  3  2  0
  2  4  1  0
  4  5  2  0
  4  6  1  0
  6  7  1  0
  7  8  1  0
  7  9  2  0
  1 10  1  0
  6 11  1  0
  6 12  1  0
M  CHG  1   8  -1
M  END
$$$$
