
     RDKit          3D

 21 21  0  0  0  0  0  0  0  0999 V2000
   -3.3038    0.3194    0.0502 C   0  0  0  0  0  0  0  0  0  0  0  0
   -1.8076    0.4989    0.2889 C   0  0  0  0  0  0  0  0  0  0  0  0
   -0.9960   -0.5588   -0.4649 C   0  0  0  0  0  0  0  0  0  0  0  0
    0.4764   -0.3629   -0.2234 C   0  0  0  0  0  0  0  0  0  0  0  0
    1.1084   -1.0132    0.8420 C   0  0  0  0  0  0  0  0  0  0  0  0
    2.4665   -0.7823    1.0567 C   0  0  0  0  0  0  0  0  0  0  0  0
    3.0600   -1.3605    2.0059 O   0  0  0  0  0  0  0  0  0  0  0  0
    3.1484    0.0681    0.2431 N   0  0  0  0  0  0  0  0  0  0  0  0
    2.5188    0.7066   -0.7827 C   0  0  0  0  0  0  0  0  0  0  0  0
    3.3574    1.7360   -1.7446 S   0  0  0  0  0  0  0  0  0  0  0  0
    1.1915    0.4934   -1.0072 N   0  0  0  0  0  0  0  0  0  0  0  0
   -3.8652    1.0984    0.6078 H   0  0  0  0  0  0  0  0  0  0  0  0
   -3.5367    0.4195   -1.0314 H   0  0  0  0  0  0  0  0  0  0  0  0
   -3.6342   -0.6797    0.4061 H   0  0  0  0  0  0  0  0  0  0  0  0
   -1.5080    1.5143   -0.0518 H   0  0  0  0  0  0  0  0  0  0  0  0
   -1.6049    0.4194    1.3795 H   0  0  0  0  0  0  0  0  0  0  0  0
   -1.2042   -0.4858   -1.5547 H   0  0  0  0  0  0  0  0  0  0  0  0
   -1.3029   -1.5757   -0.1343 H   0  0  0  0  0  0  0  0  0  0  0  0
    0.5562   -1.6827    1.4911 H   0  0  0  0  0  0  0  0  0  0  0  0
    4.1670    0.2332    0.4145 H   0  0  0  0  0  0  0  0  0  0  0  0
    0.7131    0.9943   -1.7908 H   0  0  0  0  0  0  0  0  0  0  0  0
  1  2  1  0
  2  3  1  0
  3  4  1  0
  4  5  2  0
  5  6  1  0
  6  7  2  0
  6  8  1  0
  8  9  1  0
  9 10  2  0
  9 11  1  0
 11  4  1  0
  1 12  1  0
  1 13  1  0
  1 14  1  0
  2 15  1  0
  2 16  1  0
  3 17  1  0
  3 18  1  0
  5 19  1  0
  8 20  1  0
 11 21  1  0
M  END
$$$$
