
     RDKit          3D

 60 64  0  0  0  0  0  0  0  0999 V2000
   10.3176    1.9790    0.1361 N   0  0  0  0  0  0  0  0  0  0  0  0
    9.9518    0.6100    0.3224 C   0  0  0  0  0  0  0  0  0  0  0  0
   10.8488   -0.2399    0.5666 O   0  0  0  0  0  0  0  0  0  0  0  0
    8.5499    0.1681    0.2358 C   0  0  0  0  0  0  0  0  0  0  0  0
    7.4401    0.9729   -0.0250 C   0  0  0  0  0  0  0  0  0  0  0  0
    6.3757    0.1018   -0.0022 C   0  0  0  0  0  0  0  0  0  0  0  0
    5.0145    0.3229   -0.1936 C   0  0  0  0  0  0  0  0  0  0  0  0
    4.1382   -0.7852   -0.1047 C   0  0  0  0  0  0  0  0  0  0  0  0
    4.6735   -2.0746    0.1689 C   0  0  0  0  0  0  0  0  0  0  0  0
    6.0554   -2.2579    0.3560 C   0  0  0  0  0  0  0  0  0  0  0  0
    6.8783   -1.1410    0.2631 C   0  0  0  0  0  0  0  0  0  0  0  0
    8.1798   -1.0900    0.4031 O   0  0  0  0  0  0  0  0  0  0  0  0
    2.7191   -0.6080   -0.3011 N   0  0  0  0  0  0  0  0  0  0  0  0
    2.2453    0.2096   -1.4277 C   0  0  0  0  0  0  0  0  0  0  0  0
    0.7328    0.0810   -1.5983 C   0  0  0  0  0  0  0  0  0  0  0  0
    0.0823    0.3267   -0.3004 N   0  0  0  0  0  0  0  0  0  0  0  0
   -1.3802    0.5247   -0.3957 C   0  0  0  0  0  0  0  0  0  0  0  0
   -2.1191   -0.6359   -1.1008 C   0  0  0  0  0  0  0  0  0  0  0  0
   -3.6455   -0.5172   -0.9711 C   0  0  0  0  0  0  0  0  0  0  0  0
   -4.1546   -1.0013    0.3933 C   0  0  0  0  0  0  0  0  0  0  0  0
   -5.6466   -0.8771    0.4690 C   0  0  0  0  0  0  0  0  0  0  0  0
   -6.5788   -1.8694    0.1815 C   0  0  0  0  0  0  0  0  0  0  0  0
   -7.8355   -1.3799    0.2865 N   0  0  0  0  0  0  0  0  0  0  0  0
   -7.7033   -0.0852    0.6247 C   0  0  0  0  0  0  0  0  0  0  0  0
   -6.3816    0.2602    0.7395 C   0  0  0  0  0  0  0  0  0  0  0  0
   -5.9847    1.5590    1.0581 C   0  0  0  0  0  0  0  0  0  0  0  0
   -6.9925    2.5209    1.2705 C   0  0  0  0  0  0  0  0  0  0  0  0
   -8.3569    2.1616    1.1559 C   0  0  0  0  0  0  0  0  0  0  0  0
   -8.7226    0.8434    0.8269 C   0  0  0  0  0  0  0  0  0  0  0  0
   -6.6321    3.8739    1.6027 C   0  0  0  0  0  0  0  0  0  0  0  0
   -6.3420    4.9619    1.8698 N   0  0  0  0  0  0  0  0  0  0  0  0
    0.4766   -0.6170    0.7750 C   0  0  0  0  0  0  0  0  0  0  0  0
    1.7577   -1.4156    0.4640 C   0  0  0  0  0  0  0  0  0  0  0  0
   11.3199    2.2642    0.2031 H   0  0  0  0  0  0  0  0  0  0  0  0
    9.6072    2.7147   -0.0679 H   0  0  0  0  0  0  0  0  0  0  0  0
    7.4062    2.0385   -0.2061 H   0  0  0  0  0  0  0  0  0  0  0  0
    4.6496    1.3223   -0.3881 H   0  0  0  0  0  0  0  0  0  0  0  0
    4.0239   -2.9384    0.2208 H   0  0  0  0  0  0  0  0  0  0  0  0
    6.4659   -3.2378    0.5618 H   0  0  0  0  0  0  0  0  0  0  0  0
    2.7478   -0.1132   -2.3654 H   0  0  0  0  0  0  0  0  0  0  0  0
    2.4887    1.2770   -1.2408 H   0  0  0  0  0  0  0  0  0  0  0  0
    0.4893   -0.9367   -1.9767 H   0  0  0  0  0  0  0  0  0  0  0  0
    0.3935    0.8289   -2.3486 H   0  0  0  0  0  0  0  0  0  0  0  0
   -1.5786    1.4657   -0.9539 H   0  0  0  0  0  0  0  0  0  0  0  0
   -1.7894    0.6832    0.6248 H   0  0  0  0  0  0  0  0  0  0  0  0
   -1.7859   -1.6218   -0.7143 H   0  0  0  0  0  0  0  0  0  0  0  0
   -1.8716   -0.6063   -2.1838 H   0  0  0  0  0  0  0  0  0  0  0  0
   -4.1131   -1.1430   -1.7632 H   0  0  0  0  0  0  0  0  0  0  0  0
   -3.9588    0.5358   -1.1472 H   0  0  0  0  0  0  0  0  0  0  0  0
   -3.7043   -0.4074    1.2150 H   0  0  0  0  0  0  0  0  0  0  0  0
   -3.8680   -2.0646    0.5451 H   0  0  0  0  0  0  0  0  0  0  0  0
   -6.3491   -2.8888   -0.0999 H   0  0  0  0  0  0  0  0  0  0  0  0
   -8.7251   -1.9015    0.1220 H   0  0  0  0  0  0  0  0  0  0  0  0
   -4.9354    1.8167    1.1370 H   0  0  0  0  0  0  0  0  0  0  0  0
   -9.1317    2.9012    1.3175 H   0  0  0  0  0  0  0  0  0  0  0  0
   -9.7632    0.5618    0.7309 H   0  0  0  0  0  0  0  0  0  0  0  0
   -0.3341   -1.3390    1.0138 H   0  0  0  0  0  0  0  0  0  0  0  0
    0.6542   -0.0222    1.6965 H   0  0  0  0  0  0  0  0  0  0  0  0
    1.4954   -2.3198   -0.1273 H   0  0  0  0  0  0  0  0  0  0  0  0
    2.2052   -1.7520    1.4251 H   0  0  0  0  0  0  0  0  0  0  0  0
  1  2  1  0
  2  3  2  0
  2  4  1  0
  4  5  2  0
  5  6  1  0
  6  7  2  0
  7  8  1  0
  8  9  2  0
  9 10  1  0
 10 11  2  0
 11 12  1  0
  8 13  1  0
 13 14  1  0
 14 15  1  0
 15 16  1  0
 16 17  1  0
 17 18  1  0
 18 19  1  0
 19 20  1  0
 20 21  1  0
 21 22  2  0
 22 23  1  0
 23 24  1  0
 24 25  2  0
 25 26  1  0
 26 27  2  0
 27 28  1  0
 28 29  2  0
 27 30  1  0
 30 31  3  0
 16 32  1  0
 32 33  1  0
 12  4  1  0
 33 13  1  0
 11  6  1  0
 25 21  1  0
 29 24  1  0
  1 34  1  0
  1 35  1  0
  5 36  1  0
  7 37  1  0
  9 38  1  0
 10 39  1  0
 14 40  1  0
 14 41  1  0
 15 42  1  0
 15 43  1  0
 17 44  1  0
 17 45  1  0
 18 46  1  0
 18 47  1  0
 19 48  1  0
 19 49  1  0
 20 50  1  0
 20 51  1  0
 22 52  1  0
 23 53  1  0
 26 54  1  0
 28 55  1  0
 29 56  1  0
 32 57  1  0
 32 58  1  0
 33 59  1  0
 33 60  1  0
M  END
$$$$
