
     RDKit          3D

 28 28  0  0  0  0  0  0  0  0999 V2000
    0.7656    0.0888    0.0056 C   0  0  1  0  0  0  0  0  0  0  0  0
   -0.1201   -0.5669    1.0828 C   0  0  0  0  0  0  0  0  0  0  0  0
   -1.5880   -0.3891    0.7844 C   0  0  0  0  0  0  0  0  0  0  0  0
   -2.2342    0.8157    1.1084 C   0  0  0  0  0  0  0  0  0  0  0  0
   -3.5874    0.9933    0.8038 C   0  0  0  0  0  0  0  0  0  0  0  0
   -4.3021   -0.0259    0.1685 C   0  0  0  0  0  0  0  0  0  0  0  0
   -3.6642   -1.2237   -0.1654 C   0  0  0  0  0  0  0  0  0  0  0  0
   -2.3113   -1.4057    0.1377 C   0  0  0  0  0  0  0  0  0  0  0  0
    2.1755    0.0426    0.4073 N   0  0  0  0  0  0  0  0  0  0  0  0
    3.1767    0.8487   -0.2349 C   0  0  0  0  0  0  0  0  0  0  0  0
    2.8536    1.6366   -1.1647 O   0  0  0  0  0  0  0  0  0  0  0  0
    4.5853    0.7689    0.1785 C   0  0  0  0  0  0  0  0  0  0  0  0
    5.5386    1.5589   -0.4570 O   0  0  0  0  0  0  0  0  0  0  0  0
    4.9362   -0.0103    1.1045 O   0  0  0  0  0  0  0  0  0  0  0  0
    0.5927   -0.5992   -1.3203 C   0  0  0  0  0  0  0  0  0  0  0  0
   -0.1285    0.0246   -2.3334 O   0  0  0  0  0  0  0  0  0  0  0  0
    1.0726   -1.7499   -1.5073 O   0  0  0  0  0  0  0  0  0  0  0  0
    0.4597    1.1546   -0.0919 H   0  0  0  0  0  0  0  0  0  0  0  0
    0.1275   -1.6481    1.1737 H   0  0  0  0  0  0  0  0  0  0  0  0
    0.1043   -0.1040    2.0690 H   0  0  0  0  0  0  0  0  0  0  0  0
   -1.6892    1.6161    1.5936 H   0  0  0  0  0  0  0  0  0  0  0  0
   -4.0811    1.9225    1.0575 H   0  0  0  0  0  0  0  0  0  0  0  0
   -5.3490    0.1137   -0.0679 H   0  0  0  0  0  0  0  0  0  0  0  0
   -4.2174   -2.0103   -0.6622 H   0  0  0  0  0  0  0  0  0  0  0  0
   -1.8274   -2.3354   -0.1346 H   0  0  0  0  0  0  0  0  0  0  0  0
    2.4654   -0.6027    1.1773 H   0  0  0  0  0  0  0  0  0  0  0  0
    6.5136    1.5167   -0.1852 H   0  0  0  0  0  0  0  0  0  0  0  0
   -0.2677   -0.4305   -3.2276 H   0  0  0  0  0  0  0  0  0  0  0  0
  1  2  1  0
  2  3  1  0
  3  4  2  0
  4  5  1  0
  5  6  2  0
  6  7  1  0
  7  8  2  0
  1  9  1  0
  9 10  1  0
 10 11  2  0
 10 12  1  0
 12 13  1  0
 12 14  2  0
  1 15  1  0
 15 16  1  0
 15 17  2  0
  8  3  1  0
  1 18  1  6
  2 19  1  0
  2 20  1  0
  4 21  1  0
  5 22  1  0
  6 23  1  0
  7 24  1  0
  8 25  1  0
  9 26  1  0
 13 27  1  0
 16 28  1  0
M  END
$$$$
