
     RDKit          3D

 32 33  0  0  0  0  0  0  0  0999 V2000
    6.2435   -1.2280    0.3010 O   0  0  0  0  0  0  0  0  0  0  0  0
    4.8588   -1.3641    0.3496 C   0  0  0  0  0  0  0  0  0  0  0  0
    4.3670   -2.4981    0.5997 O   0  0  0  0  0  0  0  0  0  0  0  0
    3.9676   -0.1982    0.1121 C   0  0  0  0  0  0  0  0  0  0  0  0
    2.5695   -0.3697    0.1685 C   0  0  0  0  0  0  0  0  0  0  0  0
    1.7002    0.7134   -0.0517 C   0  0  0  0  0  0  0  0  0  0  0  0
    2.2311    1.9746   -0.3296 C   0  0  0  0  0  0  0  0  0  0  0  0
    3.6119    2.1607   -0.3889 C   0  0  0  0  0  0  0  0  0  0  0  0
    4.4860    1.0865   -0.1707 C   0  0  0  0  0  0  0  0  0  0  0  0
    5.8623    1.3033   -0.2365 O   0  0  0  0  0  0  0  0  0  0  0  0
    0.2766    0.5596    0.0013 N   0  0  0  0  0  0  0  0  0  0  0  0
   -0.2766   -0.5596    0.2491 N   0  0  0  0  0  0  0  0  0  0  0  0
   -1.7002   -0.7134    0.3021 C   0  0  0  0  0  0  0  0  0  0  0  0
   -2.2311   -1.9746    0.5800 C   0  0  0  0  0  0  0  0  0  0  0  0
   -3.6119   -2.1607    0.6393 C   0  0  0  0  0  0  0  0  0  0  0  0
   -4.4860   -1.0865    0.4212 C   0  0  0  0  0  0  0  0  0  0  0  0
   -5.8623   -1.3033    0.4870 O   0  0  0  0  0  0  0  0  0  0  0  0
   -3.9676    0.1982    0.1384 C   0  0  0  0  0  0  0  0  0  0  0  0
   -2.5695    0.3697    0.0820 C   0  0  0  0  0  0  0  0  0  0  0  0
   -4.8588    1.3641   -0.0992 C   0  0  0  0  0  0  0  0  0  0  0  0
   -6.2435    1.2280   -0.0505 O   0  0  0  0  0  0  0  0  0  0  0  0
   -4.3670    2.4981   -0.3493 O   0  0  0  0  0  0  0  0  0  0  0  0
    6.8511   -2.0223    0.4628 H   0  0  0  0  0  0  0  0  0  0  0  0
    2.1549   -1.3465    0.3838 H   0  0  0  0  0  0  0  0  0  0  0  0
    1.5710    2.8159   -0.5007 H   0  0  0  0  0  0  0  0  0  0  0  0
    4.0048    3.1461   -0.6057 H   0  0  0  0  0  0  0  0  0  0  0  0
    6.2490    2.2181   -0.4382 H   0  0  0  0  0  0  0  0  0  0  0  0
   -1.5710   -2.8159    0.7512 H   0  0  0  0  0  0  0  0  0  0  0  0
   -4.0048   -3.1461    0.8561 H   0  0  0  0  0  0  0  0  0  0  0  0
   -6.2490   -2.2181    0.6886 H   0  0  0  0  0  0  0  0  0  0  0  0
   -2.1549    1.3465   -0.1333 H   0  0  0  0  0  0  0  0  0  0  0  0
   -6.8511    2.0223   -0.2123 H   0  0  0  0  0  0  0  0  0  0  0  0
  1  2  1  0
  2  3  2  0
  2  4  1  0
  4  5  2  0
  5  6  1  0
  6  7  2  0
  7  8  1  0
  8  9  2  0
  9 10  1  0
  6 11  1  0
 11 12  2  0
 12 13  1  0
 13 14  2  0
 14 15  1  0
 15 16  2  0
 16 17  1  0
 16 18  1  0
 18 19  2  0
 18 20  1  0
 20 21  1  0
 20 22  2  0
  9  4  1  0
 19 13  1  0
  1 23  1  0
  5 24  1  0
  7 25  1  0
  8 26  1  0
 10 27  1  0
 14 28  1  0
 15 29  1  0
 17 30  1  0
 19 31  1  0
 21 32  1  0
M  END
$$$$
