
     RDKit          3D

 58 60  0  0  0  0  0  0  0  0999 V2000
   -4.4733    1.5704    1.5549 C   0  0  2  0  0  0  0  0  0  0  0  0
   -4.1903    2.6117    0.4507 C   0  0  0  0  0  0  0  0  0  0  0  0
   -4.9978    3.9102    0.6088 C   0  0  0  0  0  0  0  0  0  0  0  0
   -4.5948    4.6678    1.8364 C   0  0  0  0  0  0  0  0  0  0  0  0
   -3.3850    5.3544    1.8607 O   0  0  0  0  0  0  0  0  0  0  0  0
   -5.3372    4.6632    2.8546 O   0  0  0  0  0  0  0  0  0  0  0  0
   -3.5726    0.4232    1.3972 N   0  0  0  0  0  0  0  0  0  0  0  0
   -2.1844    0.4877    1.7665 C   0  0  0  0  0  0  0  0  0  0  0  0
   -1.7651    1.4652    2.4456 O   0  0  0  0  0  0  0  0  0  0  0  0
   -1.2372   -0.5839    1.3762 C   0  0  0  0  0  0  0  0  0  0  0  0
   -1.4763   -1.3895    0.2488 C   0  0  0  0  0  0  0  0  0  0  0  0
   -0.5665   -2.3851   -0.1174 C   0  0  0  0  0  0  0  0  0  0  0  0
    0.6052   -2.5889    0.6278 C   0  0  0  0  0  0  0  0  0  0  0  0
    0.8465   -1.7850    1.7524 C   0  0  0  0  0  0  0  0  0  0  0  0
   -0.0620   -0.7889    2.1195 C   0  0  0  0  0  0  0  0  0  0  0  0
    1.5618   -3.5929    0.2297 N   0  0  0  0  0  0  0  0  0  0  0  0
    2.0702   -4.5509    1.2188 C   0  0  0  0  0  0  0  0  0  0  0  0
    3.3824   -4.1250    1.7166 C   0  0  0  0  0  0  0  0  0  0  0  0
    4.4593   -3.7732    2.1285 C   0  0  0  0  0  0  0  0  0  0  0  0
    2.0647   -3.6341   -1.1527 C   0  0  0  0  0  0  0  0  0  0  0  0
    2.7836   -2.3535   -1.4910 C   0  0  0  0  0  0  0  0  0  0  0  0
    4.1434   -2.2053   -1.1794 C   0  0  0  0  0  0  0  0  0  0  0  0
    4.8020   -1.0005   -1.4360 C   0  0  0  0  0  0  0  0  0  0  0  0
    4.1078    0.0789   -2.0014 C   0  0  0  0  0  0  0  0  0  0  0  0
    4.7443    1.2592   -2.2470 N   0  0  0  0  0  0  0  0  0  0  0  0
    4.0753    2.3132   -2.7913 C   0  0  0  0  0  0  0  0  0  0  0  0
    4.7530    3.5443   -3.0432 N   0  0  0  0  0  0  0  0  0  0  0  0
    2.7563    2.1974   -3.0966 N   0  0  0  0  0  0  0  0  0  0  0  0
    2.0745    1.0453   -2.8734 C   0  0  0  0  0  0  0  0  0  0  0  0
    0.8513    0.9852   -3.1710 O   0  0  0  0  0  0  0  0  0  0  0  0
    2.7383   -0.0592   -2.3151 C   0  0  0  0  0  0  0  0  0  0  0  0
    2.0838   -1.2770   -2.0597 C   0  0  0  0  0  0  0  0  0  0  0  0
   -5.9049    1.1062    1.5089 C   0  0  0  0  0  0  0  0  0  0  0  0
   -6.4103    0.5123    0.3557 O   0  0  0  0  0  0  0  0  0  0  0  0
   -6.6479    1.2511    2.5165 O   0  0  0  0  0  0  0  0  0  0  0  0
   -4.2886    2.0301    2.5512 H   0  0  0  0  0  0  0  0  0  0  0  0
   -4.4206    2.1665   -0.5421 H   0  0  0  0  0  0  0  0  0  0  0  0
   -3.1074    2.8646    0.4458 H   0  0  0  0  0  0  0  0  0  0  0  0
   -4.8122    4.5552   -0.2766 H   0  0  0  0  0  0  0  0  0  0  0  0
   -6.0870    3.6907    0.6324 H   0  0  0  0  0  0  0  0  0  0  0  0
   -3.0921    5.8613    2.6873 H   0  0  0  0  0  0  0  0  0  0  0  0
   -3.9571   -0.4794    1.0371 H   0  0  0  0  0  0  0  0  0  0  0  0
   -2.3513   -1.2392   -0.3691 H   0  0  0  0  0  0  0  0  0  0  0  0
   -0.7789   -2.9959   -0.9845 H   0  0  0  0  0  0  0  0  0  0  0  0
    1.7487   -1.9142    2.3352 H   0  0  0  0  0  0  0  0  0  0  0  0
    0.1534   -0.1808    2.9895 H   0  0  0  0  0  0  0  0  0  0  0  0
    2.1624   -5.5589    0.7617 H   0  0  0  0  0  0  0  0  0  0  0  0
    1.3677   -4.6358    2.0756 H   0  0  0  0  0  0  0  0  0  0  0  0
    5.4048   -3.4631    2.4884 H   0  0  0  0  0  0  0  0  0  0  0  0
    2.7611   -4.4907   -1.2897 H   0  0  0  0  0  0  0  0  0  0  0  0
    1.2249   -3.8071   -1.8582 H   0  0  0  0  0  0  0  0  0  0  0  0
    4.6958   -3.0244   -0.7373 H   0  0  0  0  0  0  0  0  0  0  0  0
    5.8524   -0.9081   -1.1886 H   0  0  0  0  0  0  0  0  0  0  0  0
    5.7589    1.3637   -2.0158 H   0  0  0  0  0  0  0  0  0  0  0  0
    5.7661    3.6528   -2.8151 H   0  0  0  0  0  0  0  0  0  0  0  0
    4.2399    4.3525   -3.4600 H   0  0  0  0  0  0  0  0  0  0  0  0
    1.0325   -1.3897   -2.2950 H   0  0  0  0  0  0  0  0  0  0  0  0
   -7.3715    0.1957    0.3128 H   0  0  0  0  0  0  0  0  0  0  0  0
  1  2  1  0
  2  3  1  0
  3  4  1  0
  4  5  1  0
  4  6  2  0
  1  7  1  0
  7  8  1  0
  8  9  2  0
  8 10  1  0
 10 11  2  0
 11 12  1  0
 12 13  2  0
 13 14  1  0
 14 15  2  0
 13 16  1  0
 16 17  1  0
 17 18  1  0
 18 19  3  0
 16 20  1  0
 20 21  1  0
 21 22  2  0
 22 23  1  0
 23 24  2  0
 24 25  1  0
 25 26  1  0
 26 27  1  0
 26 28  2  0
 28 29  1  0
 29 30  2  0
 29 31  1  0
 31 32  2  0
  1 33  1  0
 33 34  1  0
 33 35  2  0
 15 10  1  0
 32 21  1  0
 31 24  1  0
  1 36  1  1
  2 37  1  0
  2 38  1  0
  3 39  1  0
  3 40  1  0
  5 41  1  0
  7 42  1  0
 11 43  1  0
 12 44  1  0
 14 45  1  0
 15 46  1  0
 17 47  1  0
 17 48  1  0
 19 49  1  0
 20 50  1  0
 20 51  1  0
 22 52  1  0
 23 53  1  0
 25 54  1  0
 27 55  1  0
 27 56  1  0
 32 57  1  0
 34 58  1  0
M  END
$$$$
