
     RDKit          3D

 24 23  0  0  0  0  0  0  0  0999 V2000
   -2.3596    0.6035   -0.1652 C   0  0  0  0  0  0  0  0  0  0  0  0
   -1.0222   -0.1696   -0.2129 C   0  0  1  0  0  0  0  0  0  0  0  0
   -1.1666   -1.2433   -1.1152 O   0  0  0  0  0  0  0  0  0  0  0  0
    0.1415    0.7715   -0.6984 C   0  0  2  0  0  0  0  0  0  0  0  0
    1.4262    0.0411   -1.1762 C   0  0  0  0  0  0  0  0  0  0  0  0
    1.9996   -0.9484   -0.2048 C   0  0  0  0  0  0  0  0  0  0  0  0
    1.7309   -2.3046   -0.3621 O   0  0  0  0  0  0  0  0  0  0  0  0
    2.7421   -0.5626    0.7367 O   0  0  0  0  0  0  0  0  0  0  0  0
    0.4517    1.8999    0.2612 C   0  0  0  0  0  0  0  0  0  0  0  0
    1.3457    1.7204    1.3120 O   0  0  0  0  0  0  0  0  0  0  0  0
   -0.1224    3.0136    0.1216 O   0  0  0  0  0  0  0  0  0  0  0  0
   -0.7648   -0.7482    1.1653 C   0  0  0  0  0  0  0  0  0  0  0  0
   -0.5983   -2.1213    1.3279 O   0  0  0  0  0  0  0  0  0  0  0  0
   -0.7362   -0.0007    2.1806 O   0  0  0  0  0  0  0  0  0  0  0  0
   -3.1880   -0.0810    0.1192 H   0  0  0  0  0  0  0  0  0  0  0  0
   -2.3219    1.4313    0.5745 H   0  0  0  0  0  0  0  0  0  0  0  0
   -2.5987    1.0367   -1.1600 H   0  0  0  0  0  0  0  0  0  0  0  0
   -1.3608   -0.8674   -2.0142 H   0  0  0  0  0  0  0  0  0  0  0  0
   -0.2336    1.2695   -1.6223 H   0  0  0  0  0  0  0  0  0  0  0  0
    2.2075    0.7916   -1.4282 H   0  0  0  0  0  0  0  0  0  0  0  0
    1.2024   -0.4968   -2.1230 H   0  0  0  0  0  0  0  0  0  0  0  0
    2.1144   -2.9881    0.2796 H   0  0  0  0  0  0  0  0  0  0  0  0
    1.5454    2.4732    1.9597 H   0  0  0  0  0  0  0  0  0  0  0  0
   -0.4342   -2.5205    2.2442 H   0  0  0  0  0  0  0  0  0  0  0  0
  1  2  1  0
  2  3  1  6
  2  4  1  0
  4  5  1  0
  5  6  1  0
  6  7  1  0
  6  8  2  0
  4  9  1  0
  9 10  1  0
  9 11  2  0
  2 12  1  0
 12 13  1  0
 12 14  2  0
  1 15  1  0
  1 16  1  0
  1 17  1  0
  3 18  1  0
  4 19  1  6
  5 20  1  0
  5 21  1  0
  7 22  1  0
 10 23  1  0
 13 24  1  0
M  END
$$$$
