
     RDKit          3D

 57 61  0  0  0  0  0  0  0  0999 V2000
    2.3215    3.5806    0.9993 N   0  0  0  0  0  0  0  0  0  0  0  0
    0.9560    3.4989    1.4099 C   0  0  0  0  0  0  0  0  0  0  0  0
    0.3224    4.6179    1.8720 N   0  0  0  0  0  0  0  0  0  0  0  0
   -1.0148    4.6184    2.1692 C   0  0  0  0  0  0  0  0  0  0  0  0
   -1.7643    3.4922    1.9883 N   0  0  0  0  0  0  0  0  0  0  0  0
   -1.1424    2.3740    1.5428 C   0  0  0  0  0  0  0  0  0  0  0  0
    0.1932    2.3333    1.2755 C   0  0  0  0  0  0  0  0  0  0  0  0
    0.4229    1.0242    0.8615 C   0  0  0  0  0  0  0  0  0  0  0  0
   -0.7568    0.3539    0.8668 N   0  0  0  0  0  0  0  0  0  0  0  0
   -1.7058    1.1804    1.2942 N   0  0  0  0  0  0  0  0  0  0  0  0
   -3.1292    0.8410    1.3799 C   0  0  2  0  0  0  0  0  0  0  0  0
   -3.3241   -0.5352    2.0359 C   0  0  0  0  0  0  0  0  0  0  0  0
   -4.8154   -0.8948    2.1971 C   0  0  0  0  0  0  0  0  0  0  0  0
   -5.7448   -0.1293    1.2368 C   0  0  0  0  0  0  0  0  0  0  0  0
   -5.0677    0.1752   -0.0319 N   0  0  0  0  0  0  0  0  0  0  0  0
   -3.7579    0.8429   -0.0244 C   0  0  0  0  0  0  0  0  0  0  0  0
   -5.7818    0.0705   -1.2761 C   0  0  0  0  0  0  0  0  0  0  0  0
   -5.8169    1.0593   -2.0563 O   0  0  0  0  0  0  0  0  0  0  0  0
   -6.4706   -1.1702   -1.6785 C   0  0  0  0  0  0  0  0  0  0  0  0
   -6.1743   -2.3592   -1.1579 C   0  0  0  0  0  0  0  0  0  0  0  0
    1.7075    0.3680    0.5659 C   0  0  0  0  0  0  0  0  0  0  0  0
    2.7886    0.4790    1.4540 C   0  0  0  0  0  0  0  0  0  0  0  0
    3.9905   -0.1827    1.1869 C   0  0  0  0  0  0  0  0  0  0  0  0
    4.1274   -0.9676    0.0367 C   0  0  0  0  0  0  0  0  0  0  0  0
    5.3455   -1.6253   -0.1895 O   0  0  0  0  0  0  0  0  0  0  0  0
    5.8789   -1.9382   -1.4485 C   0  0  0  0  0  0  0  0  0  0  0  0
    6.7033   -3.0641   -1.5690 C   0  0  0  0  0  0  0  0  0  0  0  0
    7.2661   -3.3997   -2.8045 C   0  0  0  0  0  0  0  0  0  0  0  0
    7.0181   -2.6036   -3.9260 C   0  0  0  0  0  0  0  0  0  0  0  0
    6.2132   -1.4669   -3.8115 C   0  0  0  0  0  0  0  0  0  0  0  0
    5.6490   -1.1291   -2.5773 C   0  0  0  0  0  0  0  0  0  0  0  0
    3.0290   -1.1173   -0.8288 C   0  0  0  0  0  0  0  0  0  0  0  0
    1.8265   -0.4561   -0.5623 C   0  0  0  0  0  0  0  0  0  0  0  0
    2.7414    2.8759    0.3568 H   0  0  0  0  0  0  0  0  0  0  0  0
    2.8736    4.4422    1.2063 H   0  0  0  0  0  0  0  0  0  0  0  0
   -1.4840    5.5232    2.5302 H   0  0  0  0  0  0  0  0  0  0  0  0
   -3.6494    1.5990    2.0083 H   0  0  0  0  0  0  0  0  0  0  0  0
   -2.8313   -0.5473    3.0326 H   0  0  0  0  0  0  0  0  0  0  0  0
   -2.8323   -1.3125    1.4094 H   0  0  0  0  0  0  0  0  0  0  0  0
   -5.1349   -0.6819    3.2406 H   0  0  0  0  0  0  0  0  0  0  0  0
   -4.9396   -1.9876    2.0358 H   0  0  0  0  0  0  0  0  0  0  0  0
   -6.6713   -0.7200    1.0710 H   0  0  0  0  0  0  0  0  0  0  0  0
   -6.0524    0.8283    1.7106 H   0  0  0  0  0  0  0  0  0  0  0  0
   -3.8666    1.8920   -0.3754 H   0  0  0  0  0  0  0  0  0  0  0  0
   -3.0842    0.3077   -0.7294 H   0  0  0  0  0  0  0  0  0  0  0  0
   -7.2052   -1.1201   -2.4729 H   0  0  0  0  0  0  0  0  0  0  0  0
   -6.6913   -3.2439   -1.5059 H   0  0  0  0  0  0  0  0  0  0  0  0
   -5.4060   -2.4726   -0.4049 H   0  0  0  0  0  0  0  0  0  0  0  0
    2.6993    1.0724    2.3557 H   0  0  0  0  0  0  0  0  0  0  0  0
    4.8201   -0.0838    1.8755 H   0  0  0  0  0  0  0  0  0  0  0  0
    6.9017   -3.6842   -0.7041 H   0  0  0  0  0  0  0  0  0  0  0  0
    7.8956   -4.2758   -2.8919 H   0  0  0  0  0  0  0  0  0  0  0  0
    7.4554   -2.8631   -4.8815 H   0  0  0  0  0  0  0  0  0  0  0  0
    6.0324   -0.8432   -4.6775 H   0  0  0  0  0  0  0  0  0  0  0  0
    5.0523   -0.2298   -2.5001 H   0  0  0  0  0  0  0  0  0  0  0  0
    3.0942   -1.7610   -1.6960 H   0  0  0  0  0  0  0  0  0  0  0  0
    0.9894   -0.5844   -1.2378 H   0  0  0  0  0  0  0  0  0  0  0  0
  1  2  1  0
  2  3  2  0
  3  4  1  0
  4  5  2  0
  5  6  1  0
  6  7  2  0
  7  8  1  0
  8  9  2  0
  9 10  1  0
 10 11  1  0
 11 12  1  0
 12 13  1  0
 13 14  1  0
 14 15  1  0
 15 16  1  0
 15 17  1  0
 17 18  2  0
 17 19  1  0
 19 20  2  3
  8 21  1  0
 21 22  2  0
 22 23  1  0
 23 24  2  0
 24 25  1  0
 25 26  1  0
 26 27  2  0
 27 28  1  0
 28 29  2  0
 29 30  1  0
 30 31  2  0
 24 32  1  0
 32 33  2  0
  7  2  1  0
 16 11  1  0
 33 21  1  0
 10  6  1  0
 31 26  1  0
  1 34  1  0
  1 35  1  0
  4 36  1  0
 11 37  1  1
 12 38  1  0
 12 39  1  0
 13 40  1  0
 13 41  1  0
 14 42  1  0
 14 43  1  0
 16 44  1  0
 16 45  1  0
 19 46  1  0
 20 47  1  0
 20 48  1  0
 22 49  1  0
 23 50  1  0
 27 51  1  0
 28 52  1  0
 29 53  1  0
 30 54  1  0
 31 55  1  0
 32 56  1  0
 33 57  1  0
M  END
$$$$
