
     RDKit          3D

 42 40  0  0  0  0  0  0  0  0999 V2000
    0.6878    0.0000    0.0000 Cl  0  0  0  0  0  0  0  0  0  0  0  0
    0.6878    0.0000    0.0000 Cl  0  0  0  0  0  0  0  0  0  0  0  0
    2.7576    0.4642   -2.8428 N   0  0  0  0  0  0  0  0  0  0  0  0
    3.4155    0.4190   -1.5340 C   0  0  1  0  0  0  0  0  0  0  0  0
    2.8856   -0.7610   -0.7005 C   0  0  0  0  0  0  0  0  0  0  0  0
    1.4130   -0.6124   -0.4148 C   0  0  0  0  0  0  0  0  0  0  0  0
    0.4643   -1.2361   -1.2340 C   0  0  0  0  0  0  0  0  0  0  0  0
   -0.9004   -1.0756   -0.9848 C   0  0  0  0  0  0  0  0  0  0  0  0
   -1.3607   -0.2591    0.0750 C   0  0  0  0  0  0  0  0  0  0  0  0
   -0.3857    0.3425    0.9090 C   0  0  0  0  0  0  0  0  0  0  0  0
    0.9782    0.1797    0.6545 C   0  0  0  0  0  0  0  0  0  0  0  0
   -2.7987   -0.1550    0.3511 N   0  0  0  0  0  4  0  0  0  0  0  0
   -3.4568   -0.2176   -0.8389 O   0  0  0  0  0  1  0  0  0  0  0  0
   -3.2755   -1.3266    1.1378 C   0  0  0  0  0  0  0  0  0  0  0  0
   -2.5434   -1.5720    2.4763 C   0  0  0  0  0  0  0  0  0  0  0  0
   -1.1334   -2.6490    2.2702 Cl  0  0  0  0  0  0  0  0  0  0  0  0
   -3.2268    1.1290    0.9791 C   0  0  0  0  0  0  0  0  0  0  0  0
   -2.8863    2.3661    0.1271 C   0  0  0  0  0  0  0  0  0  0  0  0
   -3.4410    3.8442    0.9527 Cl  0  0  0  0  0  0  0  0  0  0  0  0
    4.9103    0.3245   -1.6909 C   0  0  0  0  0  0  0  0  0  0  0  0
    5.7251    1.3175   -1.1560 O   0  0  0  0  0  0  0  0  0  0  0  0
    5.4277   -0.6508   -2.2998 O   0  0  0  0  0  0  0  0  0  0  0  0
   -0.6878    0.0000    0.0000 H   0  0  0  0  0  0  0  0  0  0  0  0
   -0.6878    0.0000    0.0000 H   0  0  0  0  0  0  0  0  0  0  0  0
    3.1118    1.2970   -3.3678 H   0  0  0  0  0  0  0  0  0  0  0  0
    3.0138   -0.3876   -3.3942 H   0  0  0  0  0  0  0  0  0  0  0  0
    3.1831    1.3627   -0.9912 H   0  0  0  0  0  0  0  0  0  0  0  0
    3.0768   -1.7195   -1.2324 H   0  0  0  0  0  0  0  0  0  0  0  0
    3.4392   -0.8118    0.2635 H   0  0  0  0  0  0  0  0  0  0  0  0
    0.7811   -1.8545   -2.0648 H   0  0  0  0  0  0  0  0  0  0  0  0
   -1.6002   -1.6011   -1.6216 H   0  0  0  0  0  0  0  0  0  0  0  0
   -0.6606    0.9382    1.7653 H   0  0  0  0  0  0  0  0  0  0  0  0
    1.6989    0.6675    1.2995 H   0  0  0  0  0  0  0  0  0  0  0  0
   -4.3612   -1.2087    1.3578 H   0  0  0  0  0  0  0  0  0  0  0  0
   -3.2044   -2.2524    0.5218 H   0  0  0  0  0  0  0  0  0  0  0  0
   -3.2392   -2.0834    3.1746 H   0  0  0  0  0  0  0  0  0  0  0  0
   -2.2200   -0.6342    2.9657 H   0  0  0  0  0  0  0  0  0  0  0  0
   -4.3323    1.1226    1.1173 H   0  0  0  0  0  0  0  0  0  0  0  0
   -2.8028    1.2588    1.9940 H   0  0  0  0  0  0  0  0  0  0  0  0
   -3.3916    2.3109   -0.8597 H   0  0  0  0  0  0  0  0  0  0  0  0
   -1.7937    2.4544   -0.0370 H   0  0  0  0  0  0  0  0  0  0  0  0
    6.7326    1.2694   -1.2502 H   0  0  0  0  0  0  0  0  0  0  0  0
  3  4  1  0
  4  5  1  0
  5  6  1  0
  6  7  2  0
  7  8  1  0
  8  9  2  0
  9 10  1  0
 10 11  2  0
  9 12  1  0
 12 13  1  0
 12 14  1  0
 14 15  1  0
 15 16  1  0
 12 17  1  0
 17 18  1  0
 18 19  1  0
  4 20  1  0
 20 21  1  0
 20 22  2  0
 11  6  1  0
  1 23  1  0
  2 24  1  0
  3 25  1  0
  3 26  1  0
  4 27  1  1
  5 28  1  0
  5 29  1  0
  7 30  1  0
  8 31  1  0
 10 32  1  0
 11 33  1  0
 14 34  1  0
 14 35  1  0
 15 36  1  0
 15 37  1  0
 17 38  1  0
 17 39  1  0
 18 40  1  0
 18 41  1  0
 21 42  1  0
M  CHG  2  12   1  13  -1
M  END
$$$$
