
     RDKit          3D

 81 85  0  0  0  0  0  0  0  0999 V2000
   -7.7070   -0.1948   -0.4601 C   0  0  1  0  0  0  0  0  0  0  0  0
   -7.9148    0.1177   -1.9317 C   0  0  0  0  0  0  0  0  0  0  0  0
   -7.4007   -1.1233   -2.6169 C   0  0  2  0  0  0  0  0  0  0  0  0
   -8.4955   -2.0159   -3.0088 N   0  0  0  0  0  0  0  0  0  0  0  0
   -9.2966   -2.4713   -2.1901 N   0  0  0  0  0  4  0  0  0  0  0  0
  -10.0963   -2.9265   -1.3739 N   0  0  0  0  0  2  0  0  0  0  0  0
   -6.4853   -1.7733   -1.5628 C   0  0  1  0  0  0  0  0  0  0  0  0
   -5.0151   -1.7332   -1.9936 C   0  0  0  0  0  0  0  0  0  0  0  0
   -4.2178   -2.2524   -0.9561 O   0  0  0  0  0  0  0  0  0  0  0  0
   -2.5799   -2.1566   -1.4273 P   0  0  0  0  0  5  0  0  0  0  0  0
   -2.3253   -3.1573   -2.7673 O   0  0  0  0  0  1  0  0  0  0  0  0
   -2.2143   -0.7360   -1.8004 O   0  0  0  0  0  0  0  0  0  0  0  0
   -1.5687   -2.6850   -0.1647 O   0  0  0  0  0  0  0  0  0  0  0  0
   -2.0637   -1.8982    1.2646 P   0  0  0  0  0  5  0  0  0  0  0  0
   -3.5318   -2.5587    1.7845 O   0  0  0  0  0  1  0  0  0  0  0  0
   -2.2469   -0.4103    1.0457 O   0  0  0  0  0  0  0  0  0  0  0  0
   -0.9068   -2.1743    2.4819 O   0  0  0  0  0  0  0  0  0  0  0  0
    0.5023   -1.3079    2.0702 P   0  0  0  0  0  5  0  0  0  0  0  0
    0.8780   -1.4743    0.4251 O   0  0  0  0  0  0  0  0  0  0  0  0
    0.2816    0.1572    2.3744 O   0  0  0  0  0  0  0  0  0  0  0  0
    1.8057   -1.8510    3.0215 O   0  0  0  0  0  0  0  0  0  0  0  0
    2.0339   -3.5092    2.6995 P   0  0  0  0  0  5  0  0  0  0  0  0
    3.3210   -4.0680    3.6460 O   0  0  0  0  0  1  0  0  0  0  0  0
    0.7977   -4.2865    3.0929 O   0  0  0  0  0  0  0  0  0  0  0  0
    2.3570   -3.7870    1.0508 O   0  0  0  0  0  0  0  0  0  0  0  0
    3.8905   -3.1321    0.7117 P   0  0  0  0  0  5  0  0  0  0  0  0
    5.0902   -4.1142    1.3916 O   0  0  0  0  0  1  0  0  0  0  0  0
    4.0719   -3.1060   -0.7895 O   0  0  0  0  0  0  0  0  0  0  0  0
    4.0050   -1.5449    1.3273 O   0  0  0  0  0  0  0  0  0  0  0  0
    5.2878   -1.0414    1.0433 C   0  0  0  0  0  0  0  0  0  0  0  0
    5.3895    0.3962    1.5650 C   0  0  1  0  0  0  0  0  0  0  0  0
    6.7175    0.8533    1.4030 O   0  0  0  0  0  0  0  0  0  0  0  0
    6.6723    2.0493    0.6590 C   0  0  1  0  0  0  0  0  0  0  0  0
    7.8041    2.1130   -0.2674 N   0  0  0  0  0  0  0  0  0  0  0  0
    8.5028    3.2180   -0.6350 C   0  0  0  0  0  0  0  0  0  0  0  0
    9.4446    2.9704   -1.5874 N   0  0  0  0  0  0  0  0  0  0  0  0
    9.2998    1.6506   -1.8121 C   0  0  0  0  0  0  0  0  0  0  0  0
    9.9741    0.8262   -2.7058 C   0  0  0  0  0  0  0  0  0  0  0  0
   11.0124    1.3223   -3.5508 N   0  0  0  0  0  0  0  0  0  0  0  0
    9.6048   -0.4889   -2.7563 N   0  0  0  0  0  0  0  0  0  0  0  0
    8.6033   -0.9812   -1.9578 C   0  0  0  0  0  0  0  0  0  0  0  0
    7.9460   -0.1603   -1.0846 N   0  0  0  0  0  0  0  0  0  0  0  0
    8.3192    1.1413   -1.0325 C   0  0  0  0  0  0  0  0  0  0  0  0
    5.3548    2.0991   -0.0934 C   0  0  2  0  0  0  0  0  0  0  0  0
    4.9421    3.4252   -0.3000 O   0  0  0  0  0  0  0  0  0  0  0  0
    4.4297    1.3415    0.8247 C   0  0  2  0  0  0  0  0  0  0  0  0
    3.8130    2.2163    1.7358 O   0  0  0  0  0  0  0  0  0  0  0  0
   -6.6263   -1.0903   -0.3328 O   0  0  0  0  0  0  0  0  0  0  0  0
   -7.4673    1.0368    0.3210 N   0  0  0  0  0  0  0  0  0  0  0  0
   -8.5065    1.5786    1.0275 C   0  0  0  0  0  0  0  0  0  0  0  0
   -8.3343    2.7490    1.7756 C   0  0  0  0  0  0  0  0  0  0  0  0
   -9.4781    3.3512    2.5405 C   0  0  0  0  0  0  0  0  0  0  0  0
   -7.0806    3.3658    1.7519 C   0  0  0  0  0  0  0  0  0  0  0  0
   -6.8530    4.5403    2.4600 O   0  0  0  0  0  1  0  0  0  0  0  0
   -6.0749    2.8189    1.0273 N   0  0  0  0  0  0  0  0  0  0  0  0
   -6.2506    1.6762    0.3157 C   0  0  0  0  0  0  0  0  0  0  0  0
   -5.2826    1.2221   -0.3512 O   0  0  0  0  0  0  0  0  0  0  0  0
   -8.6128   -0.7202   -0.0782 H   0  0  0  0  0  0  0  0  0  0  0  0
   -8.9829    0.3288   -2.1598 H   0  0  0  0  0  0  0  0  0  0  0  0
   -7.2993    0.9920   -2.2390 H   0  0  0  0  0  0  0  0  0  0  0  0
   -6.8449   -0.8383   -3.5381 H   0  0  0  0  0  0  0  0  0  0  0  0
   -6.7630   -2.8396   -1.4058 H   0  0  0  0  0  0  0  0  0  0  0  0
   -4.9007   -2.3461   -2.9167 H   0  0  0  0  0  0  0  0  0  0  0  0
   -4.7416   -0.6758   -2.2116 H   0  0  0  0  0  0  0  0  0  0  0  0
    1.5666   -0.7849    0.2491 H   0  0  0  0  0  0  0  0  0  0  0  0
    5.4837   -1.0378   -0.0532 H   0  0  0  0  0  0  0  0  0  0  0  0
    6.0657   -1.6516    1.5556 H   0  0  0  0  0  0  0  0  0  0  0  0
    5.1544    0.3834    2.6529 H   0  0  0  0  0  0  0  0  0  0  0  0
    6.7329    2.9015    1.3744 H   0  0  0  0  0  0  0  0  0  0  0  0
    8.3231    4.2031   -0.2242 H   0  0  0  0  0  0  0  0  0  0  0  0
   11.5000    0.6806   -4.2144 H   0  0  0  0  0  0  0  0  0  0  0  0
   11.2987    2.3261   -3.5184 H   0  0  0  0  0  0  0  0  0  0  0  0
    8.3304   -2.0255   -2.0209 H   0  0  0  0  0  0  0  0  0  0  0  0
    5.4452    1.5592   -1.0661 H   0  0  0  0  0  0  0  0  0  0  0  0
    4.1649    3.3829   -0.9161 H   0  0  0  0  0  0  0  0  0  0  0  0
    3.6553    0.8069    0.2253 H   0  0  0  0  0  0  0  0  0  0  0  0
    3.0806    1.7024    2.1664 H   0  0  0  0  0  0  0  0  0  0  0  0
   -9.4802    1.1016    1.0148 H   0  0  0  0  0  0  0  0  0  0  0  0
  -10.3305    2.6431    2.6179 H   0  0  0  0  0  0  0  0  0  0  0  0
   -9.8247    4.2714    2.0252 H   0  0  0  0  0  0  0  0  0  0  0  0
   -9.1526    3.6105    3.5701 H   0  0  0  0  0  0  0  0  0  0  0  0
  1  2  1  0
  2  3  1  0
  3  4  1  0
  4  5  2  0
  5  6  2  0
  3  7  1  0
  7  8  1  0
  8  9  1  0
  9 10  1  0
 10 11  1  0
 10 12  2  0
 10 13  1  0
 13 14  1  0
 14 15  1  0
 14 16  2  0
 14 17  1  0
 17 18  1  0
 18 19  1  0
 18 20  2  0
 18 21  1  0
 21 22  1  0
 22 23  1  0
 22 24  2  0
 22 25  1  0
 25 26  1  0
 26 27  1  0
 26 28  2  0
 26 29  1  0
 29 30  1  0
 30 31  1  0
 31 32  1  0
 32 33  1  0
 33 34  1  0
 34 35  1  0
 35 36  2  0
 36 37  1  0
 37 38  2  0
 38 39  1  0
 38 40  1  0
 40 41  2  0
 41 42  1  0
 42 43  2  0
 33 44  1  0
 44 45  1  0
 44 46  1  0
 46 47  1  0
  7 48  1  0
  1 49  1  0
 49 50  1  0
 50 51  2  0
 51 52  1  0
 51 53  1  0
 53 54  1  0
 53 55  2  0
 55 56  1  0
 56 57  2  0
 48  1  1  0
 56 49  1  0
 46 31  1  0
 43 34  1  0
 43 37  1  0
  1 58  1  1
  2 59  1  0
  2 60  1  0
  3 61  1  6
  7 62  1  1
  8 63  1  0
  8 64  1  0
 19 65  1  0
 30 66  1  0
 30 67  1  0
 31 68  1  1
 33 69  1  1
 35 70  1  0
 39 71  1  0
 39 72  1  0
 41 73  1  0
 44 74  1  6
 45 75  1  0
 46 76  1  6
 47 77  1  0
 50 78  1  0
 52 79  1  0
 52 80  1  0
 52 81  1  0
M  CHG  7   5   1   6  -1  11  -1  15  -1  23  -1  27  -1  54  -1
M  END
$$$$
