
     RDKit          3D

 47 50  0  0  0  0  0  0  0  0999 V2000
   -1.9242    0.3168   -1.1712 C   0  0  1  0  0  0  0  0  0  0  0  0
   -1.8818   -1.2426   -0.2095 S   0  0  0  0  0  0  0  0  0  0  0  0
   -3.3328   -0.7702    0.8531 C   0  0  0  0  0  0  0  0  0  0  0  0
   -4.2744   -1.9833    0.9828 C   0  0  0  0  0  0  0  0  0  0  0  0
   -2.7905   -0.4181    2.2497 C   0  0  0  0  0  0  0  0  0  0  0  0
   -4.0111    0.4922    0.2291 C   0  0  1  0  0  0  0  0  0  0  0  0
   -2.9696    1.0852   -0.5675 N   0  0  0  0  0  0  0  0  0  0  0  0
   -1.9886    2.1662   -0.3139 C   0  0  0  0  0  0  0  0  0  0  0  0
   -2.0300    3.2951    0.2409 O   0  0  0  0  0  0  0  0  0  0  0  0
   -0.9150    1.3228   -0.9255 C   0  0  1  0  0  0  0  0  0  0  0  0
    0.1119    0.9353    0.0453 N   0  0  0  0  0  0  0  0  0  0  0  0
    1.2698    0.1902   -0.3583 C   0  0  0  0  0  0  0  0  0  0  0  0
    1.4028   -0.1586   -1.5628 O   0  0  0  0  0  0  0  0  0  0  0  0
    2.3349   -0.1425    0.6090 C   0  0  0  0  0  0  0  0  0  0  0  0
    2.2127   -0.5139    1.9379 C   0  0  0  0  0  0  0  0  0  0  0  0
    0.9646   -0.6056    2.7515 C   0  0  0  0  0  0  0  0  0  0  0  0
    3.4047   -0.8151    2.3994 O   0  0  0  0  0  0  0  0  0  0  0  0
    4.3156   -0.6897    1.4782 N   0  0  0  0  0  0  0  0  0  0  0  0
    3.6921   -0.2753    0.3580 C   0  0  0  0  0  0  0  0  0  0  0  0
    4.3940   -0.0335   -0.9180 C   0  0  0  0  0  0  0  0  0  0  0  0
    5.1512   -1.0709   -1.4914 C   0  0  0  0  0  0  0  0  0  0  0  0
    5.2278   -2.2844   -0.8874 F   0  0  0  0  0  0  0  0  0  0  0  0
    5.8160   -0.8708   -2.7046 C   0  0  0  0  0  0  0  0  0  0  0  0
    5.7415    0.3646   -3.3498 C   0  0  0  0  0  0  0  0  0  0  0  0
    5.0098    1.4082   -2.7798 C   0  0  0  0  0  0  0  0  0  0  0  0
    4.3392    1.2214   -1.5650 C   0  0  0  0  0  0  0  0  0  0  0  0
    3.5039    2.5998   -0.8546 Cl  0  0  0  0  0  0  0  0  0  0  0  0
   -5.1962    0.1937   -0.6517 C   0  0  0  0  0  0  0  0  0  0  0  0
   -6.4825    0.4242   -0.1741 O   0  0  0  0  0  0  0  0  0  0  0  0
   -5.0337   -0.2962   -1.8023 O   0  0  0  0  0  0  0  0  0  0  0  0
   -2.1245    0.1490   -2.2523 H   0  0  0  0  0  0  0  0  0  0  0  0
   -5.1803   -1.7114    1.5662 H   0  0  0  0  0  0  0  0  0  0  0  0
   -4.5856   -2.3512   -0.0175 H   0  0  0  0  0  0  0  0  0  0  0  0
   -3.7601   -2.8220    1.4996 H   0  0  0  0  0  0  0  0  0  0  0  0
   -2.0834    0.4367    2.1907 H   0  0  0  0  0  0  0  0  0  0  0  0
   -2.2537   -1.2844    2.6919 H   0  0  0  0  0  0  0  0  0  0  0  0
   -3.6220   -0.1392    2.9323 H   0  0  0  0  0  0  0  0  0  0  0  0
   -4.3330    1.2155    1.0109 H   0  0  0  0  0  0  0  0  0  0  0  0
   -0.4941    1.7878   -1.8439 H   0  0  0  0  0  0  0  0  0  0  0  0
    0.0875    1.3511    1.0027 H   0  0  0  0  0  0  0  0  0  0  0  0
    0.6664    0.4041    3.1008 H   0  0  0  0  0  0  0  0  0  0  0  0
    1.1402   -1.2520    3.6365 H   0  0  0  0  0  0  0  0  0  0  0  0
    0.1524   -1.0532    2.1445 H   0  0  0  0  0  0  0  0  0  0  0  0
    6.3892   -1.6754   -3.1469 H   0  0  0  0  0  0  0  0  0  0  0  0
    6.2588    0.5164   -4.2883 H   0  0  0  0  0  0  0  0  0  0  0  0
    4.9737    2.3683   -3.2789 H   0  0  0  0  0  0  0  0  0  0  0  0
   -7.2934    0.2151   -0.7440 H   0  0  0  0  0  0  0  0  0  0  0  0
  1  2  1  0
  2  3  1  0
  3  4  1  0
  3  5  1  0
  3  6  1  0
  6  7  1  0
  7  8  1  0
  8  9  2  0
  8 10  1  0
 10 11  1  0
 11 12  1  0
 12 13  2  0
 12 14  1  0
 14 15  2  0
 15 16  1  0
 15 17  1  0
 17 18  1  0
 18 19  2  0
 19 20  1  0
 20 21  2  0
 21 22  1  0
 21 23  1  0
 23 24  2  0
 24 25  1  0
 25 26  2  0
 26 27  1  0
  6 28  1  0
 28 29  1  0
 28 30  2  0
  7  1  1  0
 19 14  1  0
 26 20  1  0
 10  1  1  0
  1 31  1  6
  4 32  1  0
  4 33  1  0
  4 34  1  0
  5 35  1  0
  5 36  1  0
  5 37  1  0
  6 38  1  1
 10 39  1  6
 11 40  1  0
 16 41  1  0
 16 42  1  0
 16 43  1  0
 23 44  1  0
 24 45  1  0
 25 46  1  0
 29 47  1  0
M  END
$$$$
