
     RDKit          3D

 46 49  0  0  0  0  0  0  0  0999 V2000
    6.3337    2.7844    1.4010 N   0  0  0  0  0  0  0  0  0  0  0  0
    6.4866    1.6890    0.4924 C   0  0  0  0  0  0  0  0  0  0  0  0
    7.5425    1.6173   -0.2611 N   0  0  0  0  0  4  0  0  0  0  0  0
    5.4102    0.6791    0.3789 C   0  0  0  0  0  0  0  0  0  0  0  0
    5.6792   -0.7196    0.4744 C   0  0  0  0  0  0  0  0  0  0  0  0
    7.2927   -1.3329    0.8216 Cl  0  0  0  0  0  0  0  0  0  0  0  0
    4.6322   -1.6534    0.3483 C   0  0  0  0  0  0  0  0  0  0  0  0
    3.3430   -1.1723    0.1406 C   0  0  0  0  0  0  0  0  0  0  0  0
    2.2188   -1.8919   -0.0072 N   0  0  0  0  0  0  0  0  0  0  0  0
    1.2203   -0.9894   -0.1741 C   0  0  0  0  0  0  0  0  0  0  0  0
    1.7248    0.3124   -0.1390 C   0  0  0  0  0  0  0  0  0  0  0  0
    3.0790    0.1665    0.0660 C   0  0  0  0  0  0  0  0  0  0  0  0
    4.0832    1.1225    0.1814 C   0  0  0  0  0  0  0  0  0  0  0  0
   -0.1957   -1.3651   -0.4020 C   0  0  0  0  0  0  0  0  0  0  0  0
   -0.4895   -2.5313   -1.1276 C   0  0  0  0  0  0  0  0  0  0  0  0
   -1.8127   -2.9018   -1.3681 C   0  0  0  0  0  0  0  0  0  0  0  0
   -2.8609   -2.1185   -0.8854 C   0  0  0  0  0  0  0  0  0  0  0  0
   -2.5920   -0.9513   -0.1466 C   0  0  0  0  0  0  0  0  0  0  0  0
   -3.6132   -0.1348    0.3685 O   0  0  0  0  0  0  0  0  0  0  0  0
   -5.0161   -0.3430    0.1822 C   0  0  0  0  0  0  0  0  0  0  0  0
   -5.7864    0.5972    1.0938 C   0  0  0  0  0  0  0  0  0  0  0  0
   -5.9282    1.8976    0.3182 C   0  0  0  0  0  0  0  0  0  0  0  0
   -5.8188    1.5340   -1.1602 C   0  0  0  0  0  0  0  0  0  0  0  0
   -5.4390    0.0578   -1.2281 C   0  0  0  0  0  0  0  0  0  0  0  0
   -1.2599   -0.5828    0.0978 C   0  0  0  0  0  0  0  0  0  0  0  0
   -1.0071    0.5523    0.8619 O   0  0  0  0  0  1  0  0  0  0  0  0
    7.0642    3.5272    1.4728 H   0  0  0  0  0  0  0  0  0  0  0  0
    5.4978    2.8468    2.0237 H   0  0  0  0  0  0  0  0  0  0  0  0
    8.2978    2.3355   -0.1933 H   0  0  0  0  0  0  0  0  0  0  0  0
    7.6526    0.8592   -0.9714 H   0  0  0  0  0  0  0  0  0  0  0  0
    4.8196   -2.7172    0.4216 H   0  0  0  0  0  0  0  0  0  0  0  0
    2.1372   -2.9330    0.0177 H   0  0  0  0  0  0  0  0  0  0  0  0
    1.1852    1.2403   -0.2741 H   0  0  0  0  0  0  0  0  0  0  0  0
    3.8462    2.1769    0.1065 H   0  0  0  0  0  0  0  0  0  0  0  0
    0.3051   -3.1474   -1.5293 H   0  0  0  0  0  0  0  0  0  0  0  0
   -2.0267   -3.7980   -1.9363 H   0  0  0  0  0  0  0  0  0  0  0  0
   -3.8744   -2.4310   -1.0933 H   0  0  0  0  0  0  0  0  0  0  0  0
   -5.2856   -1.3965    0.4160 H   0  0  0  0  0  0  0  0  0  0  0  0
   -5.2642    0.7547    2.0628 H   0  0  0  0  0  0  0  0  0  0  0  0
   -6.7961    0.1740    1.2934 H   0  0  0  0  0  0  0  0  0  0  0  0
   -5.1028    2.5893    0.5974 H   0  0  0  0  0  0  0  0  0  0  0  0
   -6.9005    2.3880    0.5420 H   0  0  0  0  0  0  0  0  0  0  0  0
   -5.0357    2.1550   -1.6484 H   0  0  0  0  0  0  0  0  0  0  0  0
   -6.7870    1.7077   -1.6790 H   0  0  0  0  0  0  0  0  0  0  0  0
   -6.3277   -0.5411   -1.5269 H   0  0  0  0  0  0  0  0  0  0  0  0
   -4.6318   -0.1124   -1.9726 H   0  0  0  0  0  0  0  0  0  0  0  0
  1  2  1  0
  2  3  2  3
  2  4  1  0
  4  5  2  0
  5  6  1  0
  5  7  1  0
  7  8  2  0
  8  9  1  0
  9 10  1  0
 10 11  2  0
 11 12  1  0
 12 13  2  0
 10 14  1  0
 14 15  2  0
 15 16  1  0
 16 17  2  0
 17 18  1  0
 18 19  1  0
 19 20  1  0
 20 21  1  0
 21 22  1  0
 22 23  1  0
 23 24  1  0
 18 25  2  0
 25 26  1  0
 13  4  1  0
 25 14  1  0
 12  8  1  0
 24 20  1  0
  1 27  1  0
  1 28  1  0
  3 29  1  0
  3 30  1  0
  7 31  1  0
  9 32  1  0
 11 33  1  0
 13 34  1  0
 15 35  1  0
 16 36  1  0
 17 37  1  0
 20 38  1  0
 21 39  1  0
 21 40  1  0
 22 41  1  0
 22 42  1  0
 23 43  1  0
 23 44  1  0
 24 45  1  0
 24 46  1  0
M  CHG  2   3   1  26  -1
M  END
$$$$
