
     RDKit          3D

 27 29  0  0  0  0  0  0  0  0999 V2000
    0.1357    2.2959   -1.2906 O   0  0  0  0  0  0  0  0  0  0  0  0
    0.4998    1.4149   -0.4672 C   0  0  0  0  0  0  0  0  0  0  0  0
   -0.3076    0.9627    0.7202 C   0  0  0  0  0  0  0  0  0  0  0  0
    0.6223   -0.0514    1.3312 C   0  0  0  0  0  0  0  0  0  0  0  0
    0.3861   -0.7005    2.3845 O   0  0  0  0  0  0  0  0  0  0  0  0
    1.8421   -0.1641    0.5427 C   0  0  0  0  0  0  0  0  0  0  0  0
    2.9555   -0.9813    0.7410 C   0  0  0  0  0  0  0  0  0  0  0  0
    4.0135   -0.8981   -0.1803 C   0  0  0  0  0  0  0  0  0  0  0  0
    3.9391   -0.0083   -1.2718 C   0  0  0  0  0  0  0  0  0  0  0  0
    2.8062    0.8043   -1.4491 C   0  0  0  0  0  0  0  0  0  0  0  0
    1.7697    0.7029   -0.5207 C   0  0  0  0  0  0  0  0  0  0  0  0
   -1.6219    0.3408    0.3028 C   0  0  0  0  0  0  0  0  0  0  0  0
   -2.8301    0.8551    0.8044 C   0  0  0  0  0  0  0  0  0  0  0  0
   -4.0513    0.2886    0.4257 C   0  0  0  0  0  0  0  0  0  0  0  0
   -4.0783   -0.7949   -0.4559 C   0  0  0  0  0  0  0  0  0  0  0  0
   -2.8842   -1.3147   -0.9610 C   0  0  0  0  0  0  0  0  0  0  0  0
   -1.6606   -0.7521   -0.5857 C   0  0  0  0  0  0  0  0  0  0  0  0
   -0.4483    1.8127    1.4228 H   0  0  0  0  0  0  0  0  0  0  0  0
    3.0046   -1.6623    1.5808 H   0  0  0  0  0  0  0  0  0  0  0  0
    4.8895   -1.5204   -0.0515 H   0  0  0  0  0  0  0  0  0  0  0  0
    4.7583    0.0491   -1.9766 H   0  0  0  0  0  0  0  0  0  0  0  0
    2.7413    1.4892   -2.2846 H   0  0  0  0  0  0  0  0  0  0  0  0
   -2.8287    1.6945    1.4886 H   0  0  0  0  0  0  0  0  0  0  0  0
   -4.9774    0.6902    0.8162 H   0  0  0  0  0  0  0  0  0  0  0  0
   -5.0247   -1.2317   -0.7475 H   0  0  0  0  0  0  0  0  0  0  0  0
   -2.9063   -2.1541   -1.6439 H   0  0  0  0  0  0  0  0  0  0  0  0
   -0.7442   -1.1671   -0.9865 H   0  0  0  0  0  0  0  0  0  0  0  0
  1  2  2  0
  2  3  1  0
  3  4  1  0
  4  5  2  0
  4  6  1  0
  6  7  2  0
  7  8  1  0
  8  9  2  0
  9 10  1  0
 10 11  2  0
  3 12  1  0
 12 13  2  0
 13 14  1  0
 14 15  2  0
 15 16  1  0
 16 17  2  0
 11  2  1  0
 17 12  1  0
 11  6  1  0
  3 18  1  0
  7 19  1  0
  8 20  1  0
  9 21  1  0
 10 22  1  0
 13 23  1  0
 14 24  1  0
 15 25  1  0
 16 26  1  0
 17 27  1  0
M  END
$$$$
