
     RDKit          3D

 50 50  0  0  0  0  0  0  0  0999 V2000
   -6.5903    0.6224   -3.1210 C   0  0  0  0  0  0  0  0  0  0  0  0
   -6.3424    0.1445   -1.8024 O   0  0  0  0  0  0  0  0  0  0  0  0
   -5.0695   -0.1340   -1.2728 C   0  0  0  0  0  0  0  0  0  0  0  0
   -4.9662   -0.6035    0.0523 C   0  0  0  0  0  0  0  0  0  0  0  0
   -6.2278   -0.8355    0.8548 C   0  0  0  0  0  0  0  0  0  0  0  0
   -3.6858   -0.8041    0.6343 C   0  0  0  0  0  0  0  0  0  0  0  0
   -3.5662   -1.2300    2.0858 C   0  0  0  0  0  0  0  0  0  0  0  0
   -2.5209   -0.6409   -0.1606 C   0  0  0  0  0  0  0  0  0  0  0  0
   -1.1881   -0.9339    0.4179 C   0  0  0  0  0  0  0  0  0  0  0  0
   -0.2453    0.0108    0.5210 C   0  0  0  0  0  0  0  0  0  0  0  0
    1.0929   -0.2402    1.1107 C   0  0  0  0  0  0  0  0  0  0  0  0
    1.2800   -1.3169    2.1550 C   0  0  0  0  0  0  0  0  0  0  0  0
    2.1238    0.5111    0.6774 C   0  0  0  0  0  0  0  0  0  0  0  0
    3.5257    0.3271    1.1127 C   0  0  0  0  0  0  0  0  0  0  0  0
    4.4860    1.1583    0.6900 C   0  0  0  0  0  0  0  0  0  0  0  0
    5.9141    1.0079    1.0703 C   0  0  0  0  0  0  0  0  0  0  0  0
    6.2838    0.3706    2.3896 C   0  0  0  0  0  0  0  0  0  0  0  0
    6.8451    1.4724    0.2100 C   0  0  0  0  0  0  0  0  0  0  0  0
    8.3113    1.3504    0.3587 C   0  0  0  0  0  0  0  0  0  0  0  0
    9.1335    2.0868   -0.4879 O   0  0  0  0  0  0  0  0  0  0  0  0
    8.8318    0.5699    1.1997 O   0  0  0  0  0  0  0  0  0  0  0  0
   -2.6432   -0.2437   -1.5138 C   0  0  0  0  0  0  0  0  0  0  0  0
   -1.4423   -0.0963   -2.4166 C   0  0  0  0  0  0  0  0  0  0  0  0
   -3.9076    0.0432   -2.0382 C   0  0  0  0  0  0  0  0  0  0  0  0
   -7.6829    0.7550   -3.2582 H   0  0  0  0  0  0  0  0  0  0  0  0
   -6.0922    1.6034   -3.2719 H   0  0  0  0  0  0  0  0  0  0  0  0
   -6.2259   -0.1131   -3.8688 H   0  0  0  0  0  0  0  0  0  0  0  0
   -6.4018    0.0267    1.5321 H   0  0  0  0  0  0  0  0  0  0  0  0
   -6.1444   -1.7669    1.4531 H   0  0  0  0  0  0  0  0  0  0  0  0
   -7.1200   -0.9627    0.2077 H   0  0  0  0  0  0  0  0  0  0  0  0
   -4.3567   -0.7656    2.7101 H   0  0  0  0  0  0  0  0  0  0  0  0
   -3.6439   -2.3350    2.1555 H   0  0  0  0  0  0  0  0  0  0  0  0
   -2.6070   -0.9056    2.5386 H   0  0  0  0  0  0  0  0  0  0  0  0
   -1.0172   -1.9306    0.8032 H   0  0  0  0  0  0  0  0  0  0  0  0
   -0.4517    0.9982    0.1231 H   0  0  0  0  0  0  0  0  0  0  0  0
    0.3139   -1.6044    2.6185 H   0  0  0  0  0  0  0  0  0  0  0  0
    1.7442   -2.2130    1.6925 H   0  0  0  0  0  0  0  0  0  0  0  0
    1.9176   -0.9505    2.9866 H   0  0  0  0  0  0  0  0  0  0  0  0
    1.9286    1.2859   -0.0574 H   0  0  0  0  0  0  0  0  0  0  0  0
    3.7861   -0.5128    1.7413 H   0  0  0  0  0  0  0  0  0  0  0  0
    4.2230    1.9514   -0.0022 H   0  0  0  0  0  0  0  0  0  0  0  0
    7.0670    0.9654    2.9043 H   0  0  0  0  0  0  0  0  0  0  0  0
    6.6407   -0.6671    2.2218 H   0  0  0  0  0  0  0  0  0  0  0  0
    5.4197    0.3465    3.0850 H   0  0  0  0  0  0  0  0  0  0  0  0
    6.5120    1.9734   -0.6922 H   0  0  0  0  0  0  0  0  0  0  0  0
   10.1422    2.0162   -0.4247 H   0  0  0  0  0  0  0  0  0  0  0  0
   -1.7323   -0.1747   -3.4862 H   0  0  0  0  0  0  0  0  0  0  0  0
   -0.9705    0.8947   -2.2540 H   0  0  0  0  0  0  0  0  0  0  0  0
   -0.6998   -0.8985   -2.2226 H   0  0  0  0  0  0  0  0  0  0  0  0
   -3.9815    0.3873   -3.0612 H   0  0  0  0  0  0  0  0  0  0  0  0
  1  2  1  0
  2  3  1  0
  3  4  2  0
  4  5  1  0
  4  6  1  0
  6  7  1  0
  6  8  2  0
  8  9  1  0
  9 10  2  0
 10 11  1  0
 11 12  1  0
 11 13  2  0
 13 14  1  0
 14 15  2  0
 15 16  1  0
 16 17  1  0
 16 18  2  0
 18 19  1  0
 19 20  1  0
 19 21  2  0
  8 22  1  0
 22 23  1  0
 22 24  2  0
 24  3  1  0
  1 25  1  0
  1 26  1  0
  1 27  1  0
  5 28  1  0
  5 29  1  0
  5 30  1  0
  7 31  1  0
  7 32  1  0
  7 33  1  0
  9 34  1  0
 10 35  1  0
 12 36  1  0
 12 37  1  0
 12 38  1  0
 13 39  1  0
 14 40  1  0
 15 41  1  0
 17 42  1  0
 17 43  1  0
 17 44  1  0
 18 45  1  0
 20 46  1  0
 23 47  1  0
 23 48  1  0
 23 49  1  0
 24 50  1  0
M  END
$$$$
