
     RDKit          3D

 17 18  0  0  0  0  0  0  0  0999 V2000
   -3.0585    0.6893    0.4912 N   0  0  0  0  0  0  0  0  0  0  0  0
   -1.7165    0.2655    0.2528 C   0  0  0  0  0  0  0  0  0  0  0  0
   -0.7004    1.1806    0.3055 N   0  0  0  0  0  0  0  0  0  0  0  0
    0.5635    0.7535    0.0757 C   0  0  0  0  0  0  0  0  0  0  0  0
    0.8519   -0.5432   -0.2031 C   0  0  0  0  0  0  0  0  0  0  0  0
    2.1714   -0.7095   -0.3903 N   0  0  0  0  0  0  0  0  0  0  0  0
    2.7185    0.5195   -0.2229 C   0  0  0  0  0  0  0  0  0  0  0  0
    1.7383    1.4671    0.0717 C   0  0  0  0  0  0  0  0  0  0  0  0
   -0.1698   -1.4819   -0.2597 C   0  0  0  0  0  0  0  0  0  0  0  0
    0.0697   -2.6920   -0.5164 O   0  0  0  0  0  0  0  0  0  0  0  0
   -1.4482   -1.0543   -0.0280 N   0  0  0  0  0  0  0  0  0  0  0  0
   -3.2649    1.6903    0.7045 H   0  0  0  0  0  0  0  0  0  0  0  0
   -3.8479    0.0068    0.4556 H   0  0  0  0  0  0  0  0  0  0  0  0
    2.6746   -1.5959   -0.6170 H   0  0  0  0  0  0  0  0  0  0  0  0
    3.7775    0.7235   -0.3094 H   0  0  0  0  0  0  0  0  0  0  0  0
    1.8735    2.5246    0.2554 H   0  0  0  0  0  0  0  0  0  0  0  0
   -2.2328   -1.7439   -0.0656 H   0  0  0  0  0  0  0  0  0  0  0  0
  1  2  1  0
  2  3  2  0
  3  4  1  0
  4  5  2  0
  5  6  1  0
  6  7  1  0
  7  8  2  0
  5  9  1  0
  9 10  2  0
  9 11  1  0
 11  2  1  0
  8  4  1  0
  1 12  1  0
  1 13  1  0
  6 14  1  0
  7 15  1  0
  8 16  1  0
 11 17  1  0
M  END
$$$$
