
     RDKit          3D

104110  0  0  0  0  0  0  0  0999 V2000
   -3.9980   -4.1020   -1.0041 C   0  0  2  0  0  0  0  0  0  0  0  0
   -4.7449   -4.6171    0.2189 C   0  0  0  0  0  0  0  0  0  0  0  0
   -3.2795   -4.2282    0.3348 C   0  0  1  0  0  0  0  0  0  0  0  0
   -2.4260   -5.3636    0.4467 O   0  0  0  0  0  0  0  0  0  0  0  0
   -1.3097   -5.5383   -0.3779 C   0  0  0  0  0  0  0  0  0  0  0  0
   -1.3353   -6.5655   -1.3150 O   0  0  0  0  0  0  0  0  0  0  0  0
   -0.2472   -4.7887   -0.2872 N   0  0  0  0  0  0  0  0  0  0  0  0
    0.0137   -3.7156    0.6813 C   0  0  2  0  0  0  0  0  0  0  0  0
    0.4864   -2.4902   -0.0820 C   0  0  0  0  0  0  0  0  0  0  0  0
    1.2973   -2.6460   -1.0365 O   0  0  0  0  0  0  0  0  0  0  0  0
    0.0594   -1.1547    0.2651 N   0  0  0  0  0  0  0  0  0  0  0  0
   -1.1350   -0.8537    1.0383 C   0  0  0  0  0  0  0  0  0  0  0  0
   -1.4418    0.6189    0.7876 C   0  0  1  0  0  0  0  0  0  0  0  0
   -0.1360    1.2190    0.2629 C   0  0  0  0  0  0  0  0  0  0  0  0
    0.6479    0.0420   -0.3227 C   0  0  1  0  0  0  0  0  0  0  0  0
    2.1133    0.1324    0.0033 C   0  0  0  0  0  0  0  0  0  0  0  0
    2.5098    0.1538    1.3440 O   0  0  0  0  0  0  0  0  0  0  0  0
    2.9772    0.1674   -0.9693 N   0  0  0  0  0  0  0  0  0  0  0  0
    4.4241    0.2541   -0.8008 C   0  0  2  0  0  0  0  0  0  0  0  0
    5.1817   -0.6162   -1.7964 C   0  0  0  0  0  0  0  0  0  0  0  0
    5.1245   -1.0190   -0.3235 C   0  0  1  0  0  0  0  0  0  0  0  0
    6.4261   -0.8444    0.4112 C   0  0  0  0  0  0  0  0  0  0  0  0
    7.4718   -1.6332    0.1557 C   0  0  0  0  0  0  0  0  0  0  0  0
    5.0083    1.6198   -0.5805 C   0  0  0  0  0  0  0  0  0  0  0  0
    5.4663    2.3375   -1.6880 O   0  0  0  0  0  0  0  0  0  0  0  0
    5.0494    2.0951    0.6301 N   0  0  0  0  0  0  0  0  0  0  0  0
    5.6514    3.6437    1.1388 S   0  0  0  0  0  6  0  0  0  0  0  0
    5.2949    4.7103    0.1409 O   0  0  0  0  0  0  0  0  0  0  0  0
    4.9757    3.9896    2.4351 O   0  0  0  0  0  0  0  0  0  0  0  0
    7.4203    3.5996    1.4520 C   0  0  0  0  0  0  0  0  0  0  0  0
    8.2228    2.6245    0.6047 C   0  0  0  0  0  0  0  0  0  0  0  0
    8.2930    4.1149    0.3183 C   0  0  0  0  0  0  0  0  0  0  0  0
   -2.4670    0.7210   -0.2019 O   0  0  0  0  0  0  0  0  0  0  0  0
   -3.1636    1.9023   -0.4818 C   0  0  0  0  0  0  0  0  0  0  0  0
   -4.0844    1.9454   -1.5459 C   0  0  0  0  0  0  0  0  0  0  0  0
   -4.3514    0.7428   -2.4088 C   0  0  0  0  0  0  0  0  0  0  0  0
   -5.6703    0.0632   -2.0149 C   0  0  0  0  0  0  0  0  0  0  0  0
   -5.9095   -1.2324   -2.8217 C   0  0  0  0  0  0  0  0  0  0  0  0
   -5.7056   -2.5212   -2.0066 C   0  0  0  0  0  0  0  0  0  0  0  0
   -4.2865   -2.6571   -1.4355 C   0  0  0  0  0  0  0  0  0  0  0  0
   -4.7593    3.1017   -1.7921 N   0  0  0  0  0  0  0  0  0  0  0  0
   -4.5562    4.2154   -1.0417 C   0  0  0  0  0  0  0  0  0  0  0  0
   -5.2558    5.3945   -1.3114 C   0  0  0  0  0  0  0  0  0  0  0  0
   -5.0326    6.5334   -0.5300 C   0  0  0  0  0  0  0  0  0  0  0  0
   -4.1039    6.4999    0.5313 C   0  0  0  0  0  0  0  0  0  0  0  0
   -3.8475    7.6166    1.3406 O   0  0  0  0  0  0  0  0  0  0  0  0
   -4.4799    8.8830    1.1870 C   0  0  0  0  0  0  0  0  0  0  0  0
   -3.4064    5.3135    0.7962 C   0  0  0  0  0  0  0  0  0  0  0  0
   -3.6290    4.1747    0.0157 C   0  0  0  0  0  0  0  0  0  0  0  0
   -2.9590    3.0210    0.2679 N   0  0  0  0  0  0  0  0  0  0  0  0
    1.0422   -4.1924    1.7652 C   0  0  0  0  0  0  0  0  0  0  0  0
    1.2777   -3.0777    2.8080 C   0  0  0  0  0  0  0  0  0  0  0  0
    2.3993   -4.5812    1.1353 C   0  0  0  0  0  0  0  0  0  0  0  0
    0.4752   -5.4235    2.5086 C   0  0  0  0  0  0  0  0  0  0  0  0
   -3.7645   -4.8724   -1.7701 H   0  0  0  0  0  0  0  0  0  0  0  0
   -5.4451   -3.8956    0.6916 H   0  0  0  0  0  0  0  0  0  0  0  0
   -4.9391   -5.7108    0.2063 H   0  0  0  0  0  0  0  0  0  0  0  0
   -3.1434   -3.3786    1.0314 H   0  0  0  0  0  0  0  0  0  0  0  0
   -0.5473   -6.7331   -1.9296 H   0  0  0  0  0  0  0  0  0  0  0  0
   -0.9159   -3.4604    1.2153 H   0  0  0  0  0  0  0  0  0  0  0  0
   -0.9384   -1.0341    2.1162 H   0  0  0  0  0  0  0  0  0  0  0  0
   -1.9846   -1.4763    0.6974 H   0  0  0  0  0  0  0  0  0  0  0  0
   -1.7690    1.1097    1.7316 H   0  0  0  0  0  0  0  0  0  0  0  0
    0.4050    1.6862    1.1159 H   0  0  0  0  0  0  0  0  0  0  0  0
   -0.3142    2.0016   -0.5063 H   0  0  0  0  0  0  0  0  0  0  0  0
    0.4948    0.0132   -1.4256 H   0  0  0  0  0  0  0  0  0  0  0  0
    3.4781    0.1670    1.6350 H   0  0  0  0  0  0  0  0  0  0  0  0
    6.1657   -0.2259   -2.1383 H   0  0  0  0  0  0  0  0  0  0  0  0
    4.5491   -1.2513   -2.4530 H   0  0  0  0  0  0  0  0  0  0  0  0
    4.4884   -1.9052   -0.1151 H   0  0  0  0  0  0  0  0  0  0  0  0
    6.5014   -0.1073    1.2040 H   0  0  0  0  0  0  0  0  0  0  0  0
    7.4167   -2.4010   -0.6102 H   0  0  0  0  0  0  0  0  0  0  0  0
    8.3935   -1.5111    0.7151 H   0  0  0  0  0  0  0  0  0  0  0  0
    5.9426    3.2241   -1.6252 H   0  0  0  0  0  0  0  0  0  0  0  0
    7.8094    3.7816    2.4760 H   0  0  0  0  0  0  0  0  0  0  0  0
    9.1340    2.2244    1.0974 H   0  0  0  0  0  0  0  0  0  0  0  0
    7.6819    2.0540   -0.1746 H   0  0  0  0  0  0  0  0  0  0  0  0
    7.7776    4.4140   -0.6173 H   0  0  0  0  0  0  0  0  0  0  0  0
    9.2431    4.5875    0.6454 H   0  0  0  0  0  0  0  0  0  0  0  0
   -3.5115    0.0202   -2.3424 H   0  0  0  0  0  0  0  0  0  0  0  0
   -4.4120    1.0722   -3.4690 H   0  0  0  0  0  0  0  0  0  0  0  0
   -5.6866   -0.1396   -0.9215 H   0  0  0  0  0  0  0  0  0  0  0  0
   -6.5021    0.7723   -2.2225 H   0  0  0  0  0  0  0  0  0  0  0  0
   -5.2689   -1.2654   -3.7308 H   0  0  0  0  0  0  0  0  0  0  0  0
   -6.9611   -1.2312   -3.1833 H   0  0  0  0  0  0  0  0  0  0  0  0
   -6.4445   -2.5522   -1.1766 H   0  0  0  0  0  0  0  0  0  0  0  0
   -5.9169   -3.3836   -2.6768 H   0  0  0  0  0  0  0  0  0  0  0  0
   -4.1589   -1.9473   -0.5895 H   0  0  0  0  0  0  0  0  0  0  0  0
   -3.5422   -2.3933   -2.2166 H   0  0  0  0  0  0  0  0  0  0  0  0
   -5.9709    5.4317   -2.1240 H   0  0  0  0  0  0  0  0  0  0  0  0
   -5.5860    7.4339   -0.7586 H   0  0  0  0  0  0  0  0  0  0  0  0
   -5.5773    8.7807    1.3225 H   0  0  0  0  0  0  0  0  0  0  0  0
   -4.2557    9.3025    0.1835 H   0  0  0  0  0  0  0  0  0  0  0  0
   -4.0901    9.5788    1.9579 H   0  0  0  0  0  0  0  0  0  0  0  0
   -2.6920    5.2803    1.6099 H   0  0  0  0  0  0  0  0  0  0  0  0
    0.3218   -2.7868    3.2935 H   0  0  0  0  0  0  0  0  0  0  0  0
    1.7233   -2.1783    2.3370 H   0  0  0  0  0  0  0  0  0  0  0  0
    1.9762   -3.4220    3.6012 H   0  0  0  0  0  0  0  0  0  0  0  0
    2.8992   -3.6988    0.6853 H   0  0  0  0  0  0  0  0  0  0  0  0
    2.2662   -5.3538    0.3485 H   0  0  0  0  0  0  0  0  0  0  0  0
    3.0843   -4.9925    1.9080 H   0  0  0  0  0  0  0  0  0  0  0  0
    0.3705   -6.2914    1.8236 H   0  0  0  0  0  0  0  0  0  0  0  0
    1.1499   -5.7305    3.3371 H   0  0  0  0  0  0  0  0  0  0  0  0
   -0.5228   -5.1954    2.9417 H   0  0  0  0  0  0  0  0  0  0  0  0
  1  2  1  0
  2  3  1  0
  3  4  1  0
  4  5  1  0
  5  6  1  0
  5  7  2  3
  7  8  1  0
  8  9  1  0
  9 10  2  0
  9 11  1  0
 11 12  1  0
 12 13  1  0
 13 14  1  0
 14 15  1  0
 15 16  1  0
 16 17  1  0
 16 18  2  3
 19 18  1  6
 19 20  1  0
 20 21  1  0
 21 22  1  0
 22 23  2  3
 19 24  1  0
 24 25  1  0
 24 26  2  3
 26 27  1  0
 27 28  2  0
 27 29  2  0
 27 30  1  0
 30 31  1  0
 31 32  1  0
 13 33  1  0
 33 34  1  0
 34 35  2  0
 35 36  1  0
 36 37  1  0
 37 38  1  0
 38 39  1  0
 39 40  1  0
 35 41  1  0
 41 42  2  0
 42 43  1  0
 43 44  2  0
 44 45  1  0
 45 46  1  0
 46 47  1  0
 45 48  2  0
 48 49  1  0
 49 50  2  0
  8 51  1  0
 51 52  1  0
 51 53  1  0
 51 54  1  0
  3  1  1  0
 15 11  1  0
 21 19  1  0
 32 30  1  0
 50 34  1  0
 40  1  1  0
 49 42  1  0
  1 55  1  6
  2 56  1  0
  2 57  1  0
  3 58  1  1
  6 59  1  0
  8 60  1  1
 12 61  1  0
 12 62  1  0
 13 63  1  1
 14 64  1  0
 14 65  1  0
 15 66  1  6
 17 67  1  0
 20 68  1  0
 20 69  1  0
 21 70  1  6
 22 71  1  0
 23 72  1  0
 23 73  1  0
 25 74  1  0
 30 75  1  0
 31 76  1  0
 31 77  1  0
 32 78  1  0
 32 79  1  0
 36 80  1  0
 36 81  1  0
 37 82  1  0
 37 83  1  0
 38 84  1  0
 38 85  1  0
 39 86  1  0
 39 87  1  0
 40 88  1  0
 40 89  1  0
 43 90  1  0
 44 91  1  0
 47 92  1  0
 47 93  1  0
 47 94  1  0
 48 95  1  0
 52 96  1  0
 52 97  1  0
 52 98  1  0
 53 99  1  0
 53100  1  0
 53101  1  0
 54102  1  0
 54103  1  0
 54104  1  0
M  END
$$$$
