
     RDKit          3D

 83 85  0  0  0  0  0  0  0  0999 V2000
   -2.1208    4.2818   -0.3373 C   0  0  0  0  0  0  0  0  0  0  0  0
   -1.7291    2.8311   -0.6909 C   0  0  0  0  0  0  0  0  0  0  0  0
   -1.5415    2.0740    0.6370 C   0  0  0  0  0  0  0  0  0  0  0  0
   -0.1038    2.9023   -1.5789 S   0  0  0  0  0  0  0  0  0  0  0  0
    0.2161    0.7802   -1.8042 S   0  0  0  0  0  0  0  0  0  0  0  0
    1.8158    0.4770   -0.9213 C   0  0  0  0  0  0  0  0  0  0  0  0
    2.3411    1.7079   -0.1454 C   0  0  0  0  0  0  0  0  0  0  0  0
    2.8332    0.1512   -2.0315 C   0  0  0  0  0  0  0  0  0  0  0  0
    1.6316   -0.7862   -0.0028 C   0  0  1  0  0  0  0  0  0  0  0  0
    2.9138   -1.2401    0.5535 N   0  0  0  0  0  0  0  0  0  0  0  0
    3.5621   -2.4546    0.1460 C   0  0  0  0  0  0  0  0  0  0  0  0
    3.2500   -3.0056   -0.9449 O   0  0  0  0  0  0  0  0  0  0  0  0
    4.6557   -3.0471    1.0079 C   0  0  1  0  0  0  0  0  0  0  0  0
    4.5873   -4.5110    1.0162 N   0  0  0  0  0  0  0  0  0  0  0  0
    6.0536   -2.5930    0.5463 C   0  0  0  0  0  0  0  0  0  0  0  0
    6.2341   -1.0985    0.6585 C   0  0  0  0  0  0  0  0  0  0  0  0
    6.2978   -0.4841    1.9205 C   0  0  0  0  0  0  0  0  0  0  0  0
    6.4111    0.9055    2.0240 C   0  0  0  0  0  0  0  0  0  0  0  0
    6.4692    1.6949    0.8678 C   0  0  0  0  0  0  0  0  0  0  0  0
    6.5726    3.0810    0.9581 O   0  0  0  0  0  0  0  0  0  0  0  0
    6.4228    1.0865   -0.3902 C   0  0  0  0  0  0  0  0  0  0  0  0
    6.3105   -0.3029   -0.4961 C   0  0  0  0  0  0  0  0  0  0  0  0
    0.6642   -0.5719    1.1497 C   0  0  0  0  0  0  0  0  0  0  0  0
    0.9657    0.2586    2.0486 O   0  0  0  0  0  0  0  0  0  0  0  0
   -0.5585   -1.3166    1.3033 N   0  0  0  0  0  0  0  0  0  0  0  0
   -0.8743   -2.5778    0.6340 C   0  0  0  0  0  0  0  0  0  0  0  0
   -1.5661   -2.3624   -0.6842 C   0  0  0  0  0  0  0  0  0  0  0  0
   -1.4177   -3.2290   -1.5867 O   0  0  0  0  0  0  0  0  0  0  0  0
   -2.3611   -1.1990   -0.9645 N   0  0  0  0  0  0  0  0  0  0  0  0
   -3.7549   -1.0469   -0.5157 C   0  0  1  0  0  0  0  0  0  0  0  0
   -3.8709   -1.0140    1.0220 C   0  0  0  0  0  0  0  0  0  0  0  0
   -5.3044   -0.8957    1.4798 C   0  0  0  0  0  0  0  0  0  0  0  0
   -5.7980    0.3249    1.9718 C   0  0  0  0  0  0  0  0  0  0  0  0
   -7.1332    0.4347    2.3718 C   0  0  0  0  0  0  0  0  0  0  0  0
   -7.9844   -0.6701    2.2832 C   0  0  0  0  0  0  0  0  0  0  0  0
   -7.5018   -1.8870    1.7943 C   0  0  0  0  0  0  0  0  0  0  0  0
   -6.1674   -2.0013    1.3926 C   0  0  0  0  0  0  0  0  0  0  0  0
   -4.3715    0.2007   -1.1243 C   0  0  0  0  0  0  0  0  0  0  0  0
   -5.3689    0.0893   -1.8857 O   0  0  0  0  0  0  0  0  0  0  0  0
   -3.8791    1.5104   -0.8067 N   0  0  0  0  0  0  0  0  0  0  0  0
   -2.8146    2.1382   -1.5999 C   0  0  1  0  0  0  0  0  0  0  0  0
   -3.4081    3.0596   -2.6356 C   0  0  0  0  0  0  0  0  0  0  0  0
   -2.7423    3.2584   -3.8412 O   0  0  0  0  0  0  0  0  0  0  0  0
   -4.4796    3.6823   -2.4030 O   0  0  0  0  0  0  0  0  0  0  0  0
   -1.3885    4.7224    0.3736 H   0  0  0  0  0  0  0  0  0  0  0  0
   -2.1288    4.9260   -1.2420 H   0  0  0  0  0  0  0  0  0  0  0  0
   -3.1275    4.3135    0.1322 H   0  0  0  0  0  0  0  0  0  0  0  0
   -2.4289    2.1939    1.2949 H   0  0  0  0  0  0  0  0  0  0  0  0
   -1.4083    0.9971    0.4463 H   0  0  0  0  0  0  0  0  0  0  0  0
   -0.6608    2.4590    1.1913 H   0  0  0  0  0  0  0  0  0  0  0  0
    1.5888    2.0988    0.5641 H   0  0  0  0  0  0  0  0  0  0  0  0
    3.2616    1.4575    0.4214 H   0  0  0  0  0  0  0  0  0  0  0  0
    2.6058    2.5295   -0.8446 H   0  0  0  0  0  0  0  0  0  0  0  0
    2.5230   -0.7534   -2.5977 H   0  0  0  0  0  0  0  0  0  0  0  0
    3.8400   -0.0300   -1.6093 H   0  0  0  0  0  0  0  0  0  0  0  0
    2.9116    0.9960   -2.7496 H   0  0  0  0  0  0  0  0  0  0  0  0
    1.2214   -1.5855   -0.6531 H   0  0  0  0  0  0  0  0  0  0  0  0
    3.3431   -0.6936    1.3340 H   0  0  0  0  0  0  0  0  0  0  0  0
    4.5031   -2.7034    2.0549 H   0  0  0  0  0  0  0  0  0  0  0  0
    3.6390   -4.8024    1.3493 H   0  0  0  0  0  0  0  0  0  0  0  0
    4.7069   -4.8765    0.0430 H   0  0  0  0  0  0  0  0  0  0  0  0
    6.8228   -3.0883    1.1785 H   0  0  0  0  0  0  0  0  0  0  0  0
    6.2289   -2.9313   -0.4991 H   0  0  0  0  0  0  0  0  0  0  0  0
    6.2476   -1.0804    2.8230 H   0  0  0  0  0  0  0  0  0  0  0  0
    6.4493    1.3675    3.0022 H   0  0  0  0  0  0  0  0  0  0  0  0
    6.6066    3.5519    1.8548 H   0  0  0  0  0  0  0  0  0  0  0  0
    6.4671    1.6914   -1.2869 H   0  0  0  0  0  0  0  0  0  0  0  0
    6.2667   -0.7556   -1.4789 H   0  0  0  0  0  0  0  0  0  0  0  0
   -1.1680   -1.0495    2.1086 H   0  0  0  0  0  0  0  0  0  0  0  0
    0.0510   -3.1781    0.4982 H   0  0  0  0  0  0  0  0  0  0  0  0
   -1.5402   -3.1833    1.2833 H   0  0  0  0  0  0  0  0  0  0  0  0
   -2.1672   -0.8201   -1.9167 H   0  0  0  0  0  0  0  0  0  0  0  0
   -4.3237   -1.9302   -0.8839 H   0  0  0  0  0  0  0  0  0  0  0  0
   -3.4625   -1.9511    1.4476 H   0  0  0  0  0  0  0  0  0  0  0  0
   -3.2707   -0.1753    1.4297 H   0  0  0  0  0  0  0  0  0  0  0  0
   -5.1512    1.1900    2.0459 H   0  0  0  0  0  0  0  0  0  0  0  0
   -7.5083    1.3769    2.7499 H   0  0  0  0  0  0  0  0  0  0  0  0
   -9.0178   -0.5830    2.5929 H   0  0  0  0  0  0  0  0  0  0  0  0
   -8.1622   -2.7417    1.7250 H   0  0  0  0  0  0  0  0  0  0  0  0
   -5.8064   -2.9489    1.0122 H   0  0  0  0  0  0  0  0  0  0  0  0
   -4.4790    2.1209   -0.2079 H   0  0  0  0  0  0  0  0  0  0  0  0
   -2.3261    1.3462   -2.1882 H   0  0  0  0  0  0  0  0  0  0  0  0
   -3.1145    3.8871   -4.5428 H   0  0  0  0  0  0  0  0  0  0  0  0
  1  2  1  0
  2  3  1  0
  2  4  1  0
  4  5  1  0
  5  6  1  0
  6  7  1  0
  6  8  1  0
  6  9  1  0
  9 10  1  0
 10 11  1  0
 11 12  2  0
 11 13  1  0
 13 14  1  0
 13 15  1  0
 15 16  1  0
 16 17  2  0
 17 18  1  0
 18 19  2  0
 19 20  1  0
 19 21  1  0
 21 22  2  0
  9 23  1  0
 23 24  2  0
 23 25  1  0
 25 26  1  0
 26 27  1  0
 27 28  2  0
 27 29  1  0
 29 30  1  0
 30 31  1  0
 31 32  1  0
 32 33  2  0
 33 34  1  0
 34 35  2  0
 35 36  1  0
 36 37  2  0
 30 38  1  0
 38 39  2  0
 38 40  1  0
 40 41  1  0
 41 42  1  0
 42 43  1  0
 42 44  2  0
 41  2  1  0
 22 16  1  0
 37 32  1  0
  1 45  1  0
  1 46  1  0
  1 47  1  0
  3 48  1  0
  3 49  1  0
  3 50  1  0
  7 51  1  0
  7 52  1  0
  7 53  1  0
  8 54  1  0
  8 55  1  0
  8 56  1  0
  9 57  1  6
 10 58  1  0
 13 59  1  1
 14 60  1  0
 14 61  1  0
 15 62  1  0
 15 63  1  0
 17 64  1  0
 18 65  1  0
 20 66  1  0
 21 67  1  0
 22 68  1  0
 25 69  1  0
 26 70  1  0
 26 71  1  0
 29 72  1  0
 30 73  1  6
 31 74  1  0
 31 75  1  0
 33 76  1  0
 34 77  1  0
 35 78  1  0
 36 79  1  0
 37 80  1  0
 40 81  1  0
 41 82  1  6
 43 83  1  0
M  END
$$$$
