
     RDKit          3D

 36 37  0  0  0  0  0  0  0  0999 V2000
   -0.5265   -2.2335   -0.1515 C   0  0  1  0  0  0  0  0  0  0  0  0
    0.7032   -1.7612   -1.4461 S   0  0  0  0  0  0  0  0  0  0  0  0
    1.0156   -0.0324   -0.9080 C   0  0  0  0  0  0  0  0  0  0  0  0
    1.3663    0.0707    0.5660 C   0  0  0  0  0  0  0  0  0  0  0  0
    2.6037    0.8375    0.9599 C   0  0  0  0  0  0  0  0  0  0  0  0
    2.2425    2.1577    1.3529 O   0  0  0  0  0  0  0  0  0  0  0  0
    3.1802    3.0989    1.7858 C   0  0  0  0  0  0  0  0  0  0  0  0
    2.7203    4.4523    2.2088 C   0  0  0  0  0  0  0  0  0  0  0  0
    4.4032    2.8016    1.8641 O   0  0  0  0  0  0  0  0  0  0  0  0
    0.4983   -0.4539    1.4615 C   0  0  0  0  0  0  0  0  0  0  0  0
   -0.5314   -1.2821    0.9343 N   0  0  0  0  0  0  0  0  0  0  0  0
   -1.9925   -1.1293    0.7546 C   0  0  0  0  0  0  0  0  0  0  0  0
   -2.8947   -0.4599    1.3220 O   0  0  0  0  0  0  0  0  0  0  0  0
   -1.9352   -2.0482   -0.4297 C   0  0  1  0  0  0  0  0  0  0  0  0
   -2.2208   -1.3378   -1.6792 N   0  0  0  0  0  0  0  0  0  0  0  0
   -2.3423   -2.0316   -2.9283 C   0  0  0  0  0  0  0  0  0  0  0  0
   -2.2282   -3.2867   -2.9728 O   0  0  0  0  0  0  0  0  0  0  0  0
   -2.6377   -1.2724   -4.1826 C   0  0  0  0  0  0  0  0  0  0  0  0
   -4.0739   -0.9970   -4.2701 C   0  0  0  0  0  0  0  0  0  0  0  0
   -5.2084   -0.7792   -4.3392 N   0  0  0  0  0  0  0  0  0  0  0  0
    0.5537   -0.2676    2.9308 C   0  0  0  0  0  0  0  0  0  0  0  0
   -0.2706   -1.0434    3.7405 O   0  0  0  0  0  0  0  0  0  0  0  0
    1.3039    0.5921    3.4644 O   0  0  0  0  0  0  0  0  0  0  0  0
   -0.3117   -3.2551    0.2333 H   0  0  0  0  0  0  0  0  0  0  0  0
    1.8233    0.3849   -1.5443 H   0  0  0  0  0  0  0  0  0  0  0  0
    0.1023    0.5686   -1.1043 H   0  0  0  0  0  0  0  0  0  0  0  0
    3.1387    0.3140    1.7813 H   0  0  0  0  0  0  0  0  0  0  0  0
    3.3102    0.8959    0.1042 H   0  0  0  0  0  0  0  0  0  0  0  0
    3.4716    5.2178    1.9213 H   0  0  0  0  0  0  0  0  0  0  0  0
    1.7549    4.6952    1.7174 H   0  0  0  0  0  0  0  0  0  0  0  0
    2.5826    4.4683    3.3099 H   0  0  0  0  0  0  0  0  0  0  0  0
   -2.5647   -2.9537   -0.2857 H   0  0  0  0  0  0  0  0  0  0  0  0
   -2.3670   -0.3022   -1.6656 H   0  0  0  0  0  0  0  0  0  0  0  0
   -2.3245   -1.8612   -5.0708 H   0  0  0  0  0  0  0  0  0  0  0  0
   -2.0796   -0.3126   -4.1826 H   0  0  0  0  0  0  0  0  0  0  0  0
   -0.2651   -0.9323    4.7474 H   0  0  0  0  0  0  0  0  0  0  0  0
  1  2  1  0
  2  3  1  0
  3  4  1  0
  4  5  1  0
  5  6  1  0
  6  7  1  0
  7  8  1  0
  7  9  2  0
  4 10  2  0
 10 11  1  0
 11 12  1  0
 12 13  2  0
 12 14  1  0
 14 15  1  0
 15 16  1  0
 16 17  2  0
 16 18  1  0
 18 19  1  0
 19 20  3  0
 10 21  1  0
 21 22  1  0
 21 23  2  0
 11  1  1  0
 14  1  1  0
  1 24  1  1
  3 25  1  0
  3 26  1  0
  5 27  1  0
  5 28  1  0
  8 29  1  0
  8 30  1  0
  8 31  1  0
 14 32  1  1
 15 33  1  0
 18 34  1  0
 18 35  1  0
 22 36  1  0
M  END
$$$$
