
     RDKit          3D

 33 36  0  0  0  0  0  0  0  0999 V2000
    0.2832   -0.4606   -2.0704 O   0  0  0  0  0  0  0  0  0  0  0  0
    0.1497   -0.0515   -0.7306 C   0  0  0  0  0  0  0  0  0  0  0  0
   -0.4878    1.2778   -0.6552 N   0  0  0  0  0  0  0  0  0  0  0  0
   -0.5857    2.3443   -1.6385 C   0  0  0  0  0  0  0  0  0  0  0  0
   -1.9903    2.9318   -1.3814 C   0  0  0  0  0  0  0  0  0  0  0  0
   -2.6582    1.9551   -0.5244 N   0  0  0  0  0  0  0  0  0  0  0  0
   -1.7659    1.1343   -0.0982 C   0  0  0  0  0  0  0  0  0  0  0  0
   -1.9860   -0.2214    0.3282 C   0  0  0  0  0  0  0  0  0  0  0  0
   -3.1014   -0.8273    0.9019 C   0  0  0  0  0  0  0  0  0  0  0  0
   -3.0466   -2.2092    1.1460 C   0  0  0  0  0  0  0  0  0  0  0  0
   -1.9004   -2.9505    0.7926 C   0  0  0  0  0  0  0  0  0  0  0  0
   -0.8005   -2.3170    0.1880 C   0  0  0  0  0  0  0  0  0  0  0  0
   -0.8614   -0.9382   -0.0341 C   0  0  0  0  0  0  0  0  0  0  0  0
    1.4776   -0.0779    0.0167 C   0  0  0  0  0  0  0  0  0  0  0  0
    1.6904    0.7453    1.1410 C   0  0  0  0  0  0  0  0  0  0  0  0
    2.8916    0.6795    1.8528 C   0  0  0  0  0  0  0  0  0  0  0  0
    3.8881   -0.2205    1.4666 C   0  0  0  0  0  0  0  0  0  0  0  0
    5.3927   -0.3038    2.3644 Cl  0  0  0  0  0  0  0  0  0  0  0  0
    3.6789   -1.0631    0.3718 C   0  0  0  0  0  0  0  0  0  0  0  0
    2.4794   -1.0006   -0.3432 C   0  0  0  0  0  0  0  0  0  0  0  0
    0.9687    0.1227   -2.4899 H   0  0  0  0  0  0  0  0  0  0  0  0
    0.2076    3.1018   -1.4644 H   0  0  0  0  0  0  0  0  0  0  0  0
   -0.5225    1.9406   -2.6712 H   0  0  0  0  0  0  0  0  0  0  0  0
   -2.5556    3.0614   -2.3288 H   0  0  0  0  0  0  0  0  0  0  0  0
   -1.9132    3.9035   -0.8472 H   0  0  0  0  0  0  0  0  0  0  0  0
   -3.9832   -0.2519    1.1522 H   0  0  0  0  0  0  0  0  0  0  0  0
   -3.8928   -2.7094    1.5988 H   0  0  0  0  0  0  0  0  0  0  0  0
   -1.8719   -4.0167    0.9761 H   0  0  0  0  0  0  0  0  0  0  0  0
    0.0701   -2.8880   -0.1068 H   0  0  0  0  0  0  0  0  0  0  0  0
    0.9269    1.4361    1.4749 H   0  0  0  0  0  0  0  0  0  0  0  0
    3.0433    1.3241    2.7092 H   0  0  0  0  0  0  0  0  0  0  0  0
    4.4422   -1.7723    0.0777 H   0  0  0  0  0  0  0  0  0  0  0  0
    2.3332   -1.6784   -1.1746 H   0  0  0  0  0  0  0  0  0  0  0  0
  1  2  1  0
  2  3  1  0
  3  4  1  0
  4  5  1  0
  5  6  1  0
  6  7  2  0
  7  8  1  0
  8  9  2  0
  9 10  1  0
 10 11  2  0
 11 12  1  0
 12 13  2  0
  2 14  1  0
 14 15  2  0
 15 16  1  0
 16 17  2  0
 17 18  1  0
 17 19  1  0
 19 20  2  0
 13  2  1  0
 20 14  1  0
  7  3  1  0
 13  8  1  0
  1 21  1  0
  4 22  1  0
  4 23  1  0
  5 24  1  0
  5 25  1  0
  9 26  1  0
 10 27  1  0
 11 28  1  0
 12 29  1  0
 15 30  1  0
 16 31  1  0
 19 32  1  0
 20 33  1  0
M  END
$$$$
