
     RDKit          3D

 49 50  0  0  0  0  0  0  0  0999 V2000
    0.5134   -1.2415    0.2033 C   0  0  2  0  0  0  0  0  0  0  0  0
    1.3627   -1.3824    1.4911 C   0  0  0  0  0  0  0  0  0  0  0  0
    2.7010   -0.8993    1.0805 C   0  0  0  0  0  0  0  0  0  0  0  0
    2.6882   -0.3503   -0.1765 C   0  0  0  0  0  0  0  0  0  0  0  0
    1.3401   -0.3891   -0.7869 C   0  0  0  0  0  0  0  0  0  0  0  0
    3.8438    0.1970   -0.7382 C   0  0  0  0  0  0  0  0  0  0  0  0
    5.0392    0.1669    0.0027 C   0  0  0  0  0  0  0  0  0  0  0  0
    5.0462   -0.3922    1.2973 C   0  0  0  0  0  0  0  0  0  0  0  0
    3.8702   -0.9282    1.8431 C   0  0  0  0  0  0  0  0  0  0  0  0
    6.5111    0.8610   -0.6688 S   0  0  0  0  0  6  0  0  0  0  0  0
    6.6071    2.5350   -0.2497 N   0  0  0  0  0  0  0  0  0  0  0  0
    7.7101    0.1377   -0.1225 O   0  0  0  0  0  0  0  0  0  0  0  0
    6.5036    0.7183   -2.1650 O   0  0  0  0  0  0  0  0  0  0  0  0
   -0.7931   -0.6286    0.4660 N   0  0  0  0  0  0  0  0  0  0  0  0
   -1.8134   -0.5651   -0.5413 C   0  0  0  0  0  0  0  0  0  0  0  0
   -1.6262   -1.1028   -1.6675 O   0  0  0  0  0  0  0  0  0  0  0  0
   -3.1162    0.1462   -0.2586 C   0  0  0  0  0  0  0  0  0  0  0  0
   -3.3424    1.3059   -1.2567 C   0  0  0  0  0  0  0  0  0  0  0  0
   -2.2148    2.3556   -1.2752 C   0  0  0  0  0  0  0  0  0  0  0  0
   -2.0642    3.0947    0.0538 C   0  0  0  0  0  0  0  0  0  0  0  0
   -4.3003   -0.8427   -0.3113 C   0  0  0  0  0  0  0  0  0  0  0  0
   -4.2193   -1.9049    0.7965 C   0  0  0  0  0  0  0  0  0  0  0  0
   -5.4294   -2.8336    0.7586 C   0  0  0  0  0  0  0  0  0  0  0  0
    0.3622   -2.2576   -0.2267 H   0  0  0  0  0  0  0  0  0  0  0  0
    1.4141   -2.4423    1.8214 H   0  0  0  0  0  0  0  0  0  0  0  0
    0.9902   -0.7454    2.3215 H   0  0  0  0  0  0  0  0  0  0  0  0
    1.3760   -0.8635   -1.7911 H   0  0  0  0  0  0  0  0  0  0  0  0
    0.9445    0.6470   -0.8660 H   0  0  0  0  0  0  0  0  0  0  0  0
    3.8116    0.6397   -1.7257 H   0  0  0  0  0  0  0  0  0  0  0  0
    5.9564   -0.4055    1.8829 H   0  0  0  0  0  0  0  0  0  0  0  0
    3.8699   -1.3517    2.8392 H   0  0  0  0  0  0  0  0  0  0  0  0
    6.5661    2.5911    0.7927 H   0  0  0  0  0  0  0  0  0  0  0  0
    5.7383    2.9897   -0.6098 H   0  0  0  0  0  0  0  0  0  0  0  0
   -1.0074   -0.2425    1.4129 H   0  0  0  0  0  0  0  0  0  0  0  0
   -3.0916    0.5766    0.7657 H   0  0  0  0  0  0  0  0  0  0  0  0
   -3.4476    0.8911   -2.2836 H   0  0  0  0  0  0  0  0  0  0  0  0
   -4.2992    1.8189   -1.0142 H   0  0  0  0  0  0  0  0  0  0  0  0
   -1.2474    1.8838   -1.5494 H   0  0  0  0  0  0  0  0  0  0  0  0
   -2.4502    3.1027   -2.0639 H   0  0  0  0  0  0  0  0  0  0  0  0
   -1.3528    3.9379   -0.0719 H   0  0  0  0  0  0  0  0  0  0  0  0
   -1.6586    2.4181    0.8344 H   0  0  0  0  0  0  0  0  0  0  0  0
   -3.0422    3.5030    0.3859 H   0  0  0  0  0  0  0  0  0  0  0  0
   -5.2495   -0.2759   -0.1851 H   0  0  0  0  0  0  0  0  0  0  0  0
   -4.3335   -1.3415   -1.3055 H   0  0  0  0  0  0  0  0  0  0  0  0
   -4.1789   -1.4083    1.7904 H   0  0  0  0  0  0  0  0  0  0  0  0
   -3.2997   -2.5163    0.6718 H   0  0  0  0  0  0  0  0  0  0  0  0
   -6.3651   -2.2555    0.9143 H   0  0  0  0  0  0  0  0  0  0  0  0
   -5.4810   -3.3597   -0.2185 H   0  0  0  0  0  0  0  0  0  0  0  0
   -5.3420   -3.5912    1.5657 H   0  0  0  0  0  0  0  0  0  0  0  0
  1  2  1  0
  2  3  1  0
  3  4  2  0
  4  5  1  0
  4  6  1  0
  6  7  2  0
  7  8  1  0
  8  9  2  0
  7 10  1  0
 10 11  1  0
 10 12  2  0
 10 13  2  0
  1 14  1  0
 14 15  1  0
 15 16  2  0
 15 17  1  0
 17 18  1  0
 18 19  1  0
 19 20  1  0
 17 21  1  0
 21 22  1  0
 22 23  1  0
  5  1  1  0
  9  3  1  0
  1 24  1  6
  2 25  1  0
  2 26  1  0
  5 27  1  0
  5 28  1  0
  6 29  1  0
  8 30  1  0
  9 31  1  0
 11 32  1  0
 11 33  1  0
 14 34  1  0
 17 35  1  0
 18 36  1  0
 18 37  1  0
 19 38  1  0
 19 39  1  0
 20 40  1  0
 20 41  1  0
 20 42  1  0
 21 43  1  0
 21 44  1  0
 22 45  1  0
 22 46  1  0
 23 47  1  0
 23 48  1  0
 23 49  1  0
M  END
$$$$
