
     RDKit          3D

 35 36  0  0  0  0  0  0  0  0999 V2000
    5.2707    0.0925    2.3904 N   0  0  0  0  0  0  0  0  0  0  0  0
    4.1594    0.0627    1.4946 C   0  0  0  0  0  0  0  0  0  0  0  0
    2.9060    0.2803    1.9651 N   0  0  0  0  0  0  0  0  0  0  0  0
    1.8246    0.2605    1.1426 C   0  0  0  0  0  0  0  0  0  0  0  0
    0.6818    0.4539    1.6374 O   0  0  0  0  0  0  0  0  0  0  0  0
    1.9818    0.0267   -0.2034 N   0  0  0  0  0  0  0  0  0  0  0  0
    3.2345   -0.2145   -0.6985 C   0  0  0  0  0  0  0  0  0  0  0  0
    4.3477   -0.1955    0.1388 C   0  0  0  0  0  0  0  0  0  0  0  0
    0.8308   -0.0256   -1.1289 C   0  0  2  0  0  0  0  0  0  0  0  0
   -0.0695    1.0290   -0.8730 O   0  0  0  0  0  0  0  0  0  0  0  0
   -1.3706    0.5621   -1.1726 C   0  0  2  0  0  0  0  0  0  0  0  0
   -2.3079    0.9172   -0.0131 C   0  0  0  0  0  0  0  0  0  0  0  0
   -3.6325    0.5934   -0.3659 O   0  0  0  0  0  0  0  0  0  0  0  0
   -4.6388    0.9340    0.9675 P   0  0  0  0  0  5  0  0  0  0  0  0
   -4.5155    2.5684    1.3913 O   0  0  0  0  0  0  0  0  0  0  0  0
   -4.1943   -0.0239    2.2907 O   0  0  0  0  0  0  0  0  0  0  0  0
   -6.0712    0.6266    0.5945 O   0  0  0  0  0  0  0  0  0  0  0  0
   -1.3211   -0.9571   -1.4289 C   0  0  1  0  0  0  0  0  0  0  0  0
   -1.5645   -1.2544   -2.7852 O   0  0  0  0  0  0  0  0  0  0  0  0
    0.0795   -1.3404   -0.9998 C   0  0  1  0  0  0  0  0  0  0  0  0
    0.6469   -2.3270   -1.8224 O   0  0  0  0  0  0  0  0  0  0  0  0
    6.2426   -0.0752    2.0465 H   0  0  0  0  0  0  0  0  0  0  0  0
    5.1222    0.2839    3.4060 H   0  0  0  0  0  0  0  0  0  0  0  0
    3.3832   -0.4252   -1.7511 H   0  0  0  0  0  0  0  0  0  0  0  0
    5.3362   -0.3814   -0.2619 H   0  0  0  0  0  0  0  0  0  0  0  0
    1.1796    0.0942   -2.1820 H   0  0  0  0  0  0  0  0  0  0  0  0
   -1.7322    1.0966   -2.0797 H   0  0  0  0  0  0  0  0  0  0  0  0
   -2.2168    2.0100    0.1811 H   0  0  0  0  0  0  0  0  0  0  0  0
   -1.9816    0.3552    0.8920 H   0  0  0  0  0  0  0  0  0  0  0  0
   -4.7292    3.0618    0.5595 H   0  0  0  0  0  0  0  0  0  0  0  0
   -4.1924   -0.9510    1.9419 H   0  0  0  0  0  0  0  0  0  0  0  0
   -2.0631   -1.5147   -0.8151 H   0  0  0  0  0  0  0  0  0  0  0  0
   -0.8983   -0.7635   -3.3349 H   0  0  0  0  0  0  0  0  0  0  0  0
    0.0680   -1.6778    0.0632 H   0  0  0  0  0  0  0  0  0  0  0  0
    0.2038   -3.1815   -1.5798 H   0  0  0  0  0  0  0  0  0  0  0  0
  1  2  1  0
  2  3  2  0
  3  4  1  0
  4  5  2  0
  4  6  1  0
  6  7  1  0
  7  8  2  0
  6  9  1  0
  9 10  1  0
 10 11  1  0
 11 12  1  0
 12 13  1  0
 13 14  1  0
 14 15  1  0
 14 16  1  0
 14 17  2  0
 11 18  1  0
 18 19  1  0
 18 20  1  0
 20 21  1  0
  8  2  1  0
 20  9  1  0
  1 22  1  0
  1 23  1  0
  7 24  1  0
  8 25  1  0
  9 26  1  6
 11 27  1  6
 12 28  1  0
 12 29  1  0
 15 30  1  0
 16 31  1  0
 18 32  1  1
 19 33  1  0
 20 34  1  1
 21 35  1  0
M  END
$$$$
