
     RDKit          3D

 39 42  0  0  0  0  0  0  0  0999 V2000
   -5.6677   -1.1881   -0.1646 C   0  0  0  0  0  0  0  0  0  0  0  0
   -4.2343   -1.5301    0.0885 C   0  0  0  0  0  0  0  0  0  0  0  0
   -3.8718   -2.8294    0.4634 C   0  0  0  0  0  0  0  0  0  0  0  0
   -2.5275   -3.1247    0.6914 C   0  0  0  0  0  0  0  0  0  0  0  0
   -1.5603   -2.1289    0.5448 C   0  0  0  0  0  0  0  0  0  0  0  0
   -1.9539   -0.8338    0.1674 C   0  0  0  0  0  0  0  0  0  0  0  0
   -3.2741   -0.5750   -0.0495 N   0  0  0  0  0  0  0  0  0  0  0  0
   -0.9667    0.2495   -0.0026 C   0  0  0  0  0  0  0  0  0  0  0  0
    0.3531    0.0246    0.2311 N   0  0  0  0  0  0  0  0  0  0  0  0
    1.2924    0.9963    0.0741 C   0  0  0  0  0  0  0  0  0  0  0  0
    2.6654    0.7026    0.3881 N   0  0  0  0  0  0  0  0  0  0  0  0
    3.2383   -0.6118    0.2722 C   0  0  0  0  0  0  0  0  0  0  0  0
    4.3090   -0.9759    1.1007 C   0  0  0  0  0  0  0  0  0  0  0  0
    4.8769   -2.2464    0.9789 C   0  0  0  0  0  0  0  0  0  0  0  0
    4.4024   -3.1197    0.0518 N   0  0  0  0  0  0  0  0  0  0  0  0
    3.3773   -2.7900   -0.7775 C   0  0  0  0  0  0  0  0  0  0  0  0
    2.7808   -1.5298   -0.6892 C   0  0  0  0  0  0  0  0  0  0  0  0
    0.8857    2.2833   -0.3386 C   0  0  0  0  0  0  0  0  0  0  0  0
    1.7899    3.3415   -0.5586 C   0  0  0  0  0  0  0  0  0  0  0  0
    1.3204    4.5932   -0.9691 C   0  0  0  0  0  0  0  0  0  0  0  0
   -0.0458    4.8016   -1.1721 C   0  0  0  0  0  0  0  0  0  0  0  0
   -0.9512    3.7569   -0.9739 C   0  0  0  0  0  0  0  0  0  0  0  0
   -0.4934    2.4995   -0.5642 C   0  0  0  0  0  0  0  0  0  0  0  0
   -1.3776    1.4840   -0.3926 N   0  0  0  0  0  0  0  0  0  0  0  0
   -6.2679   -1.3863    0.7483 H   0  0  0  0  0  0  0  0  0  0  0  0
   -6.0581   -1.8051   -1.0010 H   0  0  0  0  0  0  0  0  0  0  0  0
   -5.7715   -0.1154   -0.4335 H   0  0  0  0  0  0  0  0  0  0  0  0
   -4.6219   -3.6024    0.5768 H   0  0  0  0  0  0  0  0  0  0  0  0
   -2.2347   -4.1256    0.9812 H   0  0  0  0  0  0  0  0  0  0  0  0
   -0.5198   -2.3706    0.7226 H   0  0  0  0  0  0  0  0  0  0  0  0
    3.2370    1.4412    0.8557 H   0  0  0  0  0  0  0  0  0  0  0  0
    4.6931   -0.2849    1.8406 H   0  0  0  0  0  0  0  0  0  0  0  0
    5.6971   -2.5376    1.6214 H   0  0  0  0  0  0  0  0  0  0  0  0
    3.0292   -3.5041   -1.5119 H   0  0  0  0  0  0  0  0  0  0  0  0
    1.9857   -1.2719   -1.3763 H   0  0  0  0  0  0  0  0  0  0  0  0
    2.8558    3.2128   -0.4337 H   0  0  0  0  0  0  0  0  0  0  0  0
    2.0189    5.4031   -1.1355 H   0  0  0  0  0  0  0  0  0  0  0  0
   -0.4025    5.7725   -1.4910 H   0  0  0  0  0  0  0  0  0  0  0  0
   -2.0077    3.9250   -1.1433 H   0  0  0  0  0  0  0  0  0  0  0  0
  1  2  1  0
  2  3  2  0
  3  4  1  0
  4  5  2  0
  5  6  1  0
  6  7  2  0
  6  8  1  0
  8  9  2  0
  9 10  1  0
 10 11  1  0
 11 12  1  0
 12 13  2  0
 13 14  1  0
 14 15  2  0
 15 16  1  0
 16 17  2  0
 10 18  2  0
 18 19  1  0
 19 20  2  0
 20 21  1  0
 21 22  2  0
 22 23  1  0
 23 24  2  0
  7  2  1  0
 24  8  1  0
 17 12  1  0
 23 18  1  0
  1 25  1  0
  1 26  1  0
  1 27  1  0
  3 28  1  0
  4 29  1  0
  5 30  1  0
 11 31  1  0
 13 32  1  0
 14 33  1  0
 16 34  1  0
 17 35  1  0
 19 36  1  0
 20 37  1  0
 21 38  1  0
 22 39  1  0
M  END
$$$$
