
     RDKit          3D

 25 25  0  0  0  0  0  0  0  0999 V2000
   -3.7144    0.3674    0.9589 C   0  0  0  0  0  0  0  0  0  0  0  0
   -3.0216    0.7926   -0.2601 N   0  0  0  0  0  0  0  0  0  0  0  0
   -1.5626    0.8718   -0.0726 C   0  0  0  0  0  0  0  0  0  0  0  0
   -0.8695   -0.5038   -0.1557 C   0  0  0  0  0  0  0  0  0  0  0  0
   -1.0534   -1.0526   -1.4360 O   0  0  0  0  0  0  0  0  0  0  0  0
    0.6078   -0.3536    0.1392 C   0  0  0  0  0  0  0  0  0  0  0  0
    1.1119   -0.6836    1.4091 C   0  0  0  0  0  0  0  0  0  0  0  0
    2.4705   -0.5183    1.6954 C   0  0  0  0  0  0  0  0  0  0  0  0
    3.3387   -0.0127    0.7231 C   0  0  0  0  0  0  0  0  0  0  0  0
    4.6898    0.1463    1.0228 O   0  0  0  0  0  0  0  0  0  0  0  0
    2.8418    0.3317   -0.5408 C   0  0  0  0  0  0  0  0  0  0  0  0
    1.4839    0.1676   -0.8303 C   0  0  0  0  0  0  0  0  0  0  0  0
   -4.8105    0.4246    0.7921 H   0  0  0  0  0  0  0  0  0  0  0  0
   -3.4607   -0.6811    1.2208 H   0  0  0  0  0  0  0  0  0  0  0  0
   -3.4651    1.0403    1.8072 H   0  0  0  0  0  0  0  0  0  0  0  0
   -3.2542    0.1249   -1.0316 H   0  0  0  0  0  0  0  0  0  0  0  0
   -1.1498    1.5301   -0.8675 H   0  0  0  0  0  0  0  0  0  0  0  0
   -1.3224    1.3614    0.8984 H   0  0  0  0  0  0  0  0  0  0  0  0
   -1.3268   -1.1823    0.5993 H   0  0  0  0  0  0  0  0  0  0  0  0
   -0.8004   -2.0110   -1.3756 H   0  0  0  0  0  0  0  0  0  0  0  0
    0.4539   -1.0678    2.1786 H   0  0  0  0  0  0  0  0  0  0  0  0
    2.8483   -0.7804    2.6755 H   0  0  0  0  0  0  0  0  0  0  0  0
    5.3441    0.5109    0.3403 H   0  0  0  0  0  0  0  0  0  0  0  0
    3.5056    0.7296   -1.2978 H   0  0  0  0  0  0  0  0  0  0  0  0
    1.1152    0.4484   -1.8090 H   0  0  0  0  0  0  0  0  0  0  0  0
  1  2  1  0
  2  3  1  0
  3  4  1  0
  4  5  1  0
  4  6  1  0
  6  7  2  0
  7  8  1  0
  8  9  2  0
  9 10  1  0
  9 11  1  0
 11 12  2  0
 12  6  1  0
  1 13  1  0
  1 14  1  0
  1 15  1  0
  2 16  1  0
  3 17  1  0
  3 18  1  0
  4 19  1  0
  5 20  1  0
  7 21  1  0
  8 22  1  0
 10 23  1  0
 11 24  1  0
 12 25  1  0
M  END
$$$$
