
     RDKit          3D

 72 75  0  0  0  0  0  0  0  0999 V2000
   -4.2259   -6.7255    0.6036 C   0  0  0  0  0  0  0  0  0  0  0  0
   -3.6095   -5.4775   -0.0205 C   0  0  0  0  0  0  0  0  0  0  0  0
   -3.5009   -4.3428    1.0024 C   0  0  0  0  0  0  0  0  0  0  0  0
   -2.9446   -3.1748    0.3990 O   0  0  0  0  0  0  0  0  0  0  0  0
   -1.5930   -2.9866    0.0556 C   0  0  0  0  0  0  0  0  0  0  0  0
   -1.2248   -1.8260   -0.6616 C   0  0  0  0  0  0  0  0  0  0  0  0
    0.1250   -1.6176   -0.9947 C   0  0  0  0  0  0  0  0  0  0  0  0
    1.1075   -2.5356   -0.6099 C   0  0  0  0  0  0  0  0  0  0  0  0
    0.7433   -3.6770    0.1082 C   0  0  0  0  0  0  0  0  0  0  0  0
   -0.5943   -3.9071    0.4330 C   0  0  0  0  0  0  0  0  0  0  0  0
    2.8018   -2.2272   -0.9878 S   0  0  0  0  0  6  0  0  0  0  0  0
    2.9035   -1.4473   -2.2693 O   0  0  0  0  0  0  0  0  0  0  0  0
    3.5168   -3.5362   -1.1729 O   0  0  0  0  0  0  0  0  0  0  0  0
    3.5621   -1.3396    0.2982 N   0  0  0  0  0  0  0  0  0  0  0  0
    2.8101   -0.1113    0.5721 C   0  0  0  0  0  0  0  0  0  0  0  0
    3.5925    0.7940    1.5330 C   0  0  0  0  0  0  0  0  0  0  0  0
    4.9042    1.3283    0.9186 C   0  0  0  0  0  0  0  0  0  0  0  0
    4.6477    2.3541   -0.1986 C   0  0  0  0  0  0  0  0  0  0  0  0
    5.4476    3.5860    0.1799 C   0  0  0  0  0  0  0  0  0  0  0  0
    6.3740    3.1229    1.2833 C   0  0  0  0  0  0  0  0  0  0  0  0
    5.6959    2.0121    1.9555 N   0  0  0  0  0  0  0  0  0  0  0  0
    6.6655    1.1131    2.6031 C   0  0  0  0  0  0  0  0  0  0  0  0
   -2.2402   -0.8249   -1.0704 C   0  0  0  0  0  0  0  0  0  0  0  0
   -3.4824   -1.2446   -1.4847 N   0  0  0  0  0  0  0  0  0  0  0  0
   -4.4483   -0.3618   -1.8731 C   0  0  0  0  0  0  0  0  0  0  0  0
   -5.5790   -0.7749   -2.2408 O   0  0  0  0  0  0  0  0  0  0  0  0
   -4.1360    0.9932   -1.8437 C   0  0  0  0  0  0  0  0  0  0  0  0
   -2.9071    1.3898   -1.4343 C   0  0  0  0  0  0  0  0  0  0  0  0
   -1.9481    0.5171   -1.0408 N   0  0  0  0  0  0  0  0  0  0  0  0
   -2.9128    2.7676   -1.4886 C   0  0  0  0  0  0  0  0  0  0  0  0
   -1.8095    3.6975   -1.0799 C   0  0  0  0  0  0  0  0  0  0  0  0
   -1.7055    3.8244    0.4457 C   0  0  0  0  0  0  0  0  0  0  0  0
   -2.9187    4.5262    1.0549 C   0  0  0  0  0  0  0  0  0  0  0  0
   -4.1363    3.1689   -1.9163 N   0  0  0  0  0  0  0  0  0  0  0  0
   -4.8737    2.0827   -2.1378 N   0  0  0  0  0  0  0  0  0  0  0  0
   -6.2582    2.1197   -2.5926 C   0  0  0  0  0  0  0  0  0  0  0  0
   -3.5948   -7.0880    1.4429 H   0  0  0  0  0  0  0  0  0  0  0  0
   -4.2954   -7.5278   -0.1609 H   0  0  0  0  0  0  0  0  0  0  0  0
   -5.2473   -6.5047    0.9806 H   0  0  0  0  0  0  0  0  0  0  0  0
   -2.6047   -5.7333   -0.4173 H   0  0  0  0  0  0  0  0  0  0  0  0
   -4.2431   -5.1447   -0.8710 H   0  0  0  0  0  0  0  0  0  0  0  0
   -4.5205   -4.0885    1.3624 H   0  0  0  0  0  0  0  0  0  0  0  0
   -2.9056   -4.6481    1.8892 H   0  0  0  0  0  0  0  0  0  0  0  0
    0.4161   -0.7417   -1.5606 H   0  0  0  0  0  0  0  0  0  0  0  0
    1.4960   -4.3884    0.4234 H   0  0  0  0  0  0  0  0  0  0  0  0
   -0.8341   -4.7994    0.9926 H   0  0  0  0  0  0  0  0  0  0  0  0
    3.5218   -1.9441    1.1512 H   0  0  0  0  0  0  0  0  0  0  0  0
    2.6045    0.4393   -0.3712 H   0  0  0  0  0  0  0  0  0  0  0  0
    1.8335   -0.3614    1.0433 H   0  0  0  0  0  0  0  0  0  0  0  0
    2.9483    1.6482    1.8371 H   0  0  0  0  0  0  0  0  0  0  0  0
    3.8194    0.2153    2.4541 H   0  0  0  0  0  0  0  0  0  0  0  0
    5.4796    0.4780    0.4818 H   0  0  0  0  0  0  0  0  0  0  0  0
    5.0033    1.9521   -1.1730 H   0  0  0  0  0  0  0  0  0  0  0  0
    3.5739    2.6252   -0.3020 H   0  0  0  0  0  0  0  0  0  0  0  0
    6.0167    3.9884   -0.6864 H   0  0  0  0  0  0  0  0  0  0  0  0
    4.7658    4.3732    0.5716 H   0  0  0  0  0  0  0  0  0  0  0  0
    6.5676    3.9460    2.0045 H   0  0  0  0  0  0  0  0  0  0  0  0
    7.3397    2.7998    0.8285 H   0  0  0  0  0  0  0  0  0  0  0  0
    6.1331    0.2888    3.1223 H   0  0  0  0  0  0  0  0  0  0  0  0
    7.3741    0.6744    1.8655 H   0  0  0  0  0  0  0  0  0  0  0  0
    7.2443    1.6730    3.3687 H   0  0  0  0  0  0  0  0  0  0  0  0
   -1.0248    0.8699   -0.7032 H   0  0  0  0  0  0  0  0  0  0  0  0
   -0.8474    3.3085   -1.4768 H   0  0  0  0  0  0  0  0  0  0  0  0
   -1.9763    4.6985   -1.5334 H   0  0  0  0  0  0  0  0  0  0  0  0
   -1.5894    2.8192    0.9061 H   0  0  0  0  0  0  0  0  0  0  0  0
   -0.7962    4.4146    0.6908 H   0  0  0  0  0  0  0  0  0  0  0  0
   -3.8380    3.9240    0.8962 H   0  0  0  0  0  0  0  0  0  0  0  0
   -2.7649    4.6493    2.1476 H   0  0  0  0  0  0  0  0  0  0  0  0
   -3.0533    5.5307    0.6001 H   0  0  0  0  0  0  0  0  0  0  0  0
   -6.5746    3.1693   -2.7714 H   0  0  0  0  0  0  0  0  0  0  0  0
   -6.9187    1.6736   -1.8199 H   0  0  0  0  0  0  0  0  0  0  0  0
   -6.3575    1.5513   -3.5411 H   0  0  0  0  0  0  0  0  0  0  0  0
  1  2  1  0
  2  3  1  0
  3  4  1  0
  4  5  1  0
  5  6  2  0
  6  7  1  0
  7  8  2  0
  8  9  1  0
  9 10  2  0
  8 11  1  0
 11 12  2  0
 11 13  2  0
 11 14  1  0
 14 15  1  0
 15 16  1  0
 16 17  1  0
 17 18  1  0
 18 19  1  0
 19 20  1  0
 20 21  1  0
 21 22  1  0
  6 23  1  0
 23 24  2  0
 24 25  1  0
 25 26  2  0
 25 27  1  0
 27 28  2  0
 28 29  1  0
 28 30  1  0
 30 31  1  0
 31 32  1  0
 32 33  1  0
 30 34  2  0
 34 35  1  0
 35 36  1  0
 10  5  1  0
 21 17  1  0
 29 23  1  0
 35 27  1  0
  1 37  1  0
  1 38  1  0
  1 39  1  0
  2 40  1  0
  2 41  1  0
  3 42  1  0
  3 43  1  0
  7 44  1  0
  9 45  1  0
 10 46  1  0
 14 47  1  0
 15 48  1  0
 15 49  1  0
 16 50  1  0
 16 51  1  0
 17 52  1  0
 18 53  1  0
 18 54  1  0
 19 55  1  0
 19 56  1  0
 20 57  1  0
 20 58  1  0
 22 59  1  0
 22 60  1  0
 22 61  1  0
 29 62  1  0
 31 63  1  0
 31 64  1  0
 32 65  1  0
 32 66  1  0
 33 67  1  0
 33 68  1  0
 33 69  1  0
 36 70  1  0
 36 71  1  0
 36 72  1  0
M  END
$$$$
