
     RDKit          3D

 38 41  0  0  0  0  0  0  0  0999 V2000
    1.3795   -1.8051    0.6343 C   0  0  1  0  0  0  0  0  0  0  0  0
    2.5957   -2.2725    1.4617 C   0  0  0  0  0  0  0  0  0  0  0  0
    0.1298   -1.8895    1.5278 C   0  0  0  0  0  0  0  0  0  0  0  0
   -0.9842   -1.3175    0.8647 O   0  0  0  0  0  0  0  0  0  0  0  0
   -0.8576   -0.1092    0.1841 C   0  0  0  0  0  0  0  0  0  0  0  0
    0.4274    0.3483   -0.1762 C   0  0  0  0  0  0  0  0  0  0  0  0
    1.5382   -0.4329    0.0664 N   0  0  0  0  0  0  0  0  0  0  0  0
    2.7692   -0.0066   -0.3672 C   0  0  0  0  0  0  0  0  0  0  0  0
    2.9535    1.2481   -0.9696 C   0  0  0  0  0  0  0  0  0  0  0  0
    4.3234    1.6656   -1.3778 C   0  0  0  0  0  0  0  0  0  0  0  0
    5.4135    0.8369   -1.1222 O   0  0  0  0  0  0  0  0  0  0  0  0
    4.5195    2.7681   -1.9569 O   0  0  0  0  0  0  0  0  0  0  0  0
    1.8285    2.0642   -1.1837 C   0  0  0  0  0  0  0  0  0  0  0  0
    1.9575    3.1985   -1.7229 O   0  0  0  0  0  0  0  0  0  0  0  0
    0.5549    1.6090   -0.8079 C   0  0  0  0  0  0  0  0  0  0  0  0
   -0.5953    2.3798   -1.0609 C   0  0  0  0  0  0  0  0  0  0  0  0
   -1.8608    1.9006   -0.7249 C   0  0  0  0  0  0  0  0  0  0  0  0
   -2.9482    2.6736   -0.9752 F   0  0  0  0  0  0  0  0  0  0  0  0
   -2.0048    0.6403   -0.1285 C   0  0  0  0  0  0  0  0  0  0  0  0
   -3.3728    0.1448    0.2692 C   0  0  0  0  0  0  0  0  0  0  0  0
   -3.8611    0.5233    1.5976 N   0  0  0  0  0  0  0  0  0  0  0  0
   -3.8174   -1.2203   -0.2457 C   0  0  0  0  0  0  0  0  0  0  0  0
   -4.4312    0.0503   -0.8252 C   0  0  0  0  0  0  0  0  0  0  0  0
    1.2419   -2.5169   -0.2095 H   0  0  0  0  0  0  0  0  0  0  0  0
    2.3430   -3.1786    2.0538 H   0  0  0  0  0  0  0  0  0  0  0  0
    3.4382   -2.5603    0.7996 H   0  0  0  0  0  0  0  0  0  0  0  0
    2.9218   -1.4730    2.1610 H   0  0  0  0  0  0  0  0  0  0  0  0
   -0.1017   -2.9474    1.7760 H   0  0  0  0  0  0  0  0  0  0  0  0
    0.3022   -1.3325    2.4753 H   0  0  0  0  0  0  0  0  0  0  0  0
    3.6338   -0.6431   -0.2595 H   0  0  0  0  0  0  0  0  0  0  0  0
    6.3504    1.1096   -1.3947 H   0  0  0  0  0  0  0  0  0  0  0  0
   -0.5208    3.3531   -1.5306 H   0  0  0  0  0  0  0  0  0  0  0  0
   -3.2467    0.0554    2.3021 H   0  0  0  0  0  0  0  0  0  0  0  0
   -4.8293    0.1611    1.7591 H   0  0  0  0  0  0  0  0  0  0  0  0
   -3.1168   -1.7272   -0.9434 H   0  0  0  0  0  0  0  0  0  0  0  0
   -4.5053   -1.7885    0.4159 H   0  0  0  0  0  0  0  0  0  0  0  0
   -4.0856    0.2690   -1.8583 H   0  0  0  0  0  0  0  0  0  0  0  0
   -5.4818    0.2212   -0.5080 H   0  0  0  0  0  0  0  0  0  0  0  0
  1  2  1  0
  1  3  1  0
  3  4  1  0
  4  5  1  0
  5  6  2  0
  6  7  1  0
  7  8  1  0
  8  9  2  0
  9 10  1  0
 10 11  1  0
 10 12  2  0
  9 13  1  0
 13 14  2  0
 13 15  1  0
 15 16  2  0
 16 17  1  0
 17 18  1  0
 17 19  2  0
 19 20  1  0
 20 21  1  0
 20 22  1  0
 22 23  1  0
  7  1  1  0
 23 20  1  0
 19  5  1  0
 15  6  1  0
  1 24  1  6
  2 25  1  0
  2 26  1  0
  2 27  1  0
  3 28  1  0
  3 29  1  0
  8 30  1  0
 11 31  1  0
 16 32  1  0
 21 33  1  0
 21 34  1  0
 22 35  1  0
 22 36  1  0
 23 37  1  0
 23 38  1  0
M  END
$$$$
