
     RDKit          3D

 45 49  0  0  0  0  0  0  0  0999 V2000
   -4.7351    1.1412   -1.8212 C   0  0  0  0  0  0  0  0  0  0  0  0
   -4.9657    0.1933   -0.6869 C   0  0  0  0  0  0  0  0  0  0  0  0
   -5.9785   -0.6995   -0.6763 N   0  0  0  0  0  0  0  0  0  0  0  0
   -5.8464   -1.3377    0.5044 C   0  0  0  0  0  0  0  0  0  0  0  0
   -4.7671   -0.8261    1.1888 C   0  0  0  0  0  0  0  0  0  0  0  0
   -4.2131    0.1391    0.4353 N   0  0  0  0  0  0  0  0  0  0  0  0
   -3.0345    0.9371    0.7860 C   0  0  0  0  0  0  0  0  0  0  0  0
   -1.7501    0.0807    0.7580 C   0  0  1  0  0  0  0  0  0  0  0  0
   -1.4993   -0.4982   -0.6660 C   0  0  0  0  0  0  0  0  0  0  0  0
   -0.1783   -1.2894   -0.7675 C   0  0  0  0  0  0  0  0  0  0  0  0
    0.9546   -0.4643   -0.2360 C   0  0  0  0  0  0  0  0  0  0  0  0
    0.7740    0.5246    0.7194 C   0  0  0  0  0  0  0  0  0  0  0  0
    2.0405    0.9678    1.0650 C   0  0  0  0  0  0  0  0  0  0  0  0
    2.5083    1.9012    1.9912 C   0  0  0  0  0  0  0  0  0  0  0  0
    3.9066    2.0450    2.1270 C   0  0  0  0  0  0  0  0  0  0  0  0
    4.7941    1.2541    1.3550 C   0  0  0  0  0  0  0  0  0  0  0  0
    4.2851    0.3272    0.4235 C   0  0  0  0  0  0  0  0  0  0  0  0
    2.9090    0.2205    0.3171 C   0  0  0  0  0  0  0  0  0  0  0  0
    2.2733   -0.6440   -0.4832 N   0  0  0  0  0  0  0  0  0  0  0  0
    2.9625   -1.6499   -1.2924 C   0  0  0  0  0  0  0  0  0  0  0  0
    4.3989   -1.1703   -1.6144 C   0  0  0  0  0  0  0  0  0  0  0  0
    5.1431   -0.6319   -0.3646 C   0  0  0  0  0  0  0  0  0  0  0  0
   -0.5499    0.8795    1.2408 C   0  0  0  0  0  0  0  0  0  0  0  0
   -0.6688    1.7627    2.1323 O   0  0  0  0  0  0  0  0  0  0  0  0
   -5.4763    0.9614   -2.6282 H   0  0  0  0  0  0  0  0  0  0  0  0
   -3.7168    0.9941   -2.2350 H   0  0  0  0  0  0  0  0  0  0  0  0
   -4.8433    2.1860   -1.4632 H   0  0  0  0  0  0  0  0  0  0  0  0
   -6.5004   -2.1287    0.8458 H   0  0  0  0  0  0  0  0  0  0  0  0
   -4.4127   -1.1369    2.1632 H   0  0  0  0  0  0  0  0  0  0  0  0
   -2.9263    1.8014    0.0961 H   0  0  0  0  0  0  0  0  0  0  0  0
   -3.1865    1.3506    1.8069 H   0  0  0  0  0  0  0  0  0  0  0  0
   -1.8809   -0.7714    1.4605 H   0  0  0  0  0  0  0  0  0  0  0  0
   -2.3334   -1.1744   -0.9516 H   0  0  0  0  0  0  0  0  0  0  0  0
   -1.4693    0.3350   -1.4025 H   0  0  0  0  0  0  0  0  0  0  0  0
    0.0099   -1.5552   -1.8289 H   0  0  0  0  0  0  0  0  0  0  0  0
   -0.2547   -2.2242   -0.1723 H   0  0  0  0  0  0  0  0  0  0  0  0
    1.8301    2.4886    2.5952 H   0  0  0  0  0  0  0  0  0  0  0  0
    4.3045    2.7543    2.8408 H   0  0  0  0  0  0  0  0  0  0  0  0
    5.8629    1.3567    1.4923 H   0  0  0  0  0  0  0  0  0  0  0  0
    3.0070   -2.6044   -0.7255 H   0  0  0  0  0  0  0  0  0  0  0  0
    2.4099   -1.8212   -2.2404 H   0  0  0  0  0  0  0  0  0  0  0  0
    4.3403   -0.3573   -2.3710 H   0  0  0  0  0  0  0  0  0  0  0  0
    4.9783   -2.0071   -2.0600 H   0  0  0  0  0  0  0  0  0  0  0  0
    5.4161   -1.4849    0.2929 H   0  0  0  0  0  0  0  0  0  0  0  0
    6.0784   -0.1251   -0.6858 H   0  0  0  0  0  0  0  0  0  0  0  0
  1  2  1  0
  2  3  2  0
  3  4  1  0
  4  5  2  0
  5  6  1  0
  6  7  1  0
  7  8  1  0
  8  9  1  0
  9 10  1  0
 10 11  1  0
 11 12  2  0
 12 13  1  0
 13 14  2  0
 14 15  1  0
 15 16  2  0
 16 17  1  0
 17 18  2  0
 18 19  1  0
 19 20  1  0
 20 21  1  0
 21 22  1  0
 12 23  1  0
 23 24  2  0
  6  2  1  0
 23  8  1  0
 19 11  1  0
 18 13  1  0
 22 17  1  0
  1 25  1  0
  1 26  1  0
  1 27  1  0
  4 28  1  0
  5 29  1  0
  7 30  1  0
  7 31  1  0
  8 32  1  1
  9 33  1  0
  9 34  1  0
 10 35  1  0
 10 36  1  0
 14 37  1  0
 15 38  1  0
 16 39  1  0
 20 40  1  0
 20 41  1  0
 21 42  1  0
 21 43  1  0
 22 44  1  0
 22 45  1  0
M  END
$$$$
