
     RDKit          3D

 33 36  0  0  0  0  0  0  0  0999 V2000
    1.3920   -3.3014   -1.3592 N   0  0  0  0  0  0  0  0  0  0  0  0
    0.1570   -3.0883   -0.8733 C   0  0  0  0  0  0  0  0  0  0  0  0
    0.1420   -1.8592   -0.2492 C   0  0  0  0  0  0  0  0  0  0  0  0
    1.4396   -1.3758   -0.3781 C   0  0  0  0  0  0  0  0  0  0  0  0
    2.1747   -2.2756   -1.0641 N   0  0  0  0  0  0  0  0  0  0  0  0
    1.9926   -0.1210    0.1760 C   0  0  0  0  0  0  0  0  0  0  0  0
    1.2715    0.6052    1.0755 N   0  0  0  0  0  0  0  0  0  0  0  0
    1.7393    1.7635    1.6113 C   0  0  0  0  0  0  0  0  0  0  0  0
    2.9988    2.2421    1.2477 C   0  0  0  0  0  0  0  0  0  0  0  0
    3.7653    1.5174    0.3343 C   0  0  0  0  0  0  0  0  0  0  0  0
    3.2667    0.3297   -0.2054 C   0  0  0  0  0  0  0  0  0  0  0  0
   -1.0199   -1.2389    0.4206 C   0  0  0  0  0  0  0  0  0  0  0  0
   -1.5747   -0.0065   -0.0024 C   0  0  0  0  0  0  0  0  0  0  0  0
   -1.0999    0.6934   -1.1311 C   0  0  0  0  0  0  0  0  0  0  0  0
   -1.6726    1.9148   -1.4971 C   0  0  0  0  0  0  0  0  0  0  0  0
   -2.7285    2.4478   -0.7553 C   0  0  0  0  0  0  0  0  0  0  0  0
   -3.2250    1.7584    0.3527 C   0  0  0  0  0  0  0  0  0  0  0  0
   -2.6611    0.5343    0.7300 C   0  0  0  0  0  0  0  0  0  0  0  0
   -3.1666   -0.1374    1.7981 N   0  0  0  0  0  0  0  0  0  0  0  0
   -2.6623   -1.3328    2.1967 C   0  0  0  0  0  0  0  0  0  0  0  0
   -1.5884   -1.9044    1.5152 C   0  0  0  0  0  0  0  0  0  0  0  0
    1.7056   -4.1455   -1.8870 H   0  0  0  0  0  0  0  0  0  0  0  0
   -0.6734   -3.7748   -0.9754 H   0  0  0  0  0  0  0  0  0  0  0  0
    1.1327    2.3119    2.3195 H   0  0  0  0  0  0  0  0  0  0  0  0
    3.3771    3.1638    1.6705 H   0  0  0  0  0  0  0  0  0  0  0  0
    4.7445    1.8758    0.0441 H   0  0  0  0  0  0  0  0  0  0  0  0
    3.8664   -0.2251   -0.9161 H   0  0  0  0  0  0  0  0  0  0  0  0
   -0.2928    0.3047   -1.7371 H   0  0  0  0  0  0  0  0  0  0  0  0
   -1.2980    2.4485   -2.3611 H   0  0  0  0  0  0  0  0  0  0  0  0
   -3.1681    3.3937   -1.0444 H   0  0  0  0  0  0  0  0  0  0  0  0
   -4.0517    2.1750    0.9150 H   0  0  0  0  0  0  0  0  0  0  0  0
   -3.0937   -1.8396    3.0496 H   0  0  0  0  0  0  0  0  0  0  0  0
   -1.1890   -2.8535    1.8521 H   0  0  0  0  0  0  0  0  0  0  0  0
  1  2  1  0
  2  3  2  0
  3  4  1  0
  4  5  2  0
  4  6  1  0
  6  7  2  0
  7  8  1  0
  8  9  2  0
  9 10  1  0
 10 11  2  0
  3 12  1  0
 12 13  1  0
 13 14  2  0
 14 15  1  0
 15 16  2  0
 16 17  1  0
 17 18  2  0
 18 19  1  0
 19 20  2  0
 20 21  1  0
  5  1  1  0
 11  6  1  0
 21 12  2  0
 18 13  1  0
  1 22  1  0
  2 23  1  0
  8 24  1  0
  9 25  1  0
 10 26  1  0
 11 27  1  0
 14 28  1  0
 15 29  1  0
 16 30  1  0
 17 31  1  0
 20 32  1  0
 21 33  1  0
M  END
$$$$
