
     RDKit          3D

 29 31  0  0  0  0  0  0  0  0999 V2000
   -4.5521   -0.7206    0.5763 N   0  0  0  0  0  0  0  0  0  0  0  0
   -3.2397   -1.1001    0.1696 C   0  0  0  0  0  0  0  0  0  0  0  0
   -2.9131   -2.3351   -0.0509 N   0  0  0  0  0  0  0  0  0  0  0  0
   -1.5369   -2.3094   -0.4059 C   0  0  0  0  0  0  0  0  0  0  0  0
   -0.8744   -3.3490   -0.6572 O   0  0  0  0  0  0  0  0  0  0  0  0
   -1.0514   -0.9293   -0.3933 C   0  0  0  0  0  0  0  0  0  0  0  0
   -2.1832   -0.1546   -0.0052 N   0  0  0  0  0  0  0  0  0  0  0  0
    0.1972   -0.4420   -0.5982 C   0  0  0  0  0  0  0  0  0  0  0  0
    1.3890   -1.3312   -0.8067 C   0  0  0  0  0  0  0  0  0  0  0  0
    2.0790   -1.5571    0.5338 C   0  0  0  0  0  0  0  0  0  0  0  0
    3.0081   -0.4714    0.8378 N   0  0  0  0  0  0  0  0  0  0  0  0
    2.6702    0.9217    0.9623 C   0  0  0  0  0  0  0  0  0  0  0  0
    3.4201    1.6497    1.6664 O   0  0  0  0  0  0  0  0  0  0  0  0
    1.5520    1.5786    0.2342 C   0  0  0  0  0  0  0  0  0  0  0  0
    0.4849    0.9961   -0.4449 C   0  0  0  0  0  0  0  0  0  0  0  0
   -0.2444    2.0322   -1.0037 C   0  0  0  0  0  0  0  0  0  0  0  0
    0.3797    3.1989   -0.6230 C   0  0  0  0  0  0  0  0  0  0  0  0
    1.4601    2.9210    0.1270 N   0  0  0  0  0  0  0  0  0  0  0  0
   -5.2970   -1.4416    0.7011 H   0  0  0  0  0  0  0  0  0  0  0  0
   -4.7779    0.2833    0.7516 H   0  0  0  0  0  0  0  0  0  0  0  0
   -2.2193    0.8503    0.2724 H   0  0  0  0  0  0  0  0  0  0  0  0
    1.1222   -2.2956   -1.2761 H   0  0  0  0  0  0  0  0  0  0  0  0
    2.0962   -0.8500   -1.5184 H   0  0  0  0  0  0  0  0  0  0  0  0
    2.6476   -2.5114    0.4837 H   0  0  0  0  0  0  0  0  0  0  0  0
    1.3399   -1.6605    1.3590 H   0  0  0  0  0  0  0  0  0  0  0  0
    3.9805   -0.7483    1.1036 H   0  0  0  0  0  0  0  0  0  0  0  0
   -1.1224    1.9495   -1.6309 H   0  0  0  0  0  0  0  0  0  0  0  0
    0.0678    4.1993   -0.8922 H   0  0  0  0  0  0  0  0  0  0  0  0
    2.1176    3.6266    0.5278 H   0  0  0  0  0  0  0  0  0  0  0  0
  1  2  1  0
  2  3  2  0
  3  4  1  0
  4  5  2  0
  4  6  1  0
  6  7  1  0
  6  8  2  0
  8  9  1  0
  9 10  1  0
 10 11  1  0
 11 12  1  0
 12 13  2  0
 12 14  1  0
 14 15  2  0
 15 16  1  0
 16 17  2  0
 17 18  1  0
  7  2  1  0
 15  8  1  0
 18 14  1  0
  1 19  1  0
  1 20  1  0
  7 21  1  0
  9 22  1  0
  9 23  1  0
 10 24  1  0
 10 25  1  0
 11 26  1  0
 16 27  1  0
 17 28  1  0
 18 29  1  0
M  END
$$$$
