
     RDKit          3D

 57 57  0  0  0  0  0  0  0  0999 V2000
   -0.7290    1.3823    1.9261 C   0  0  2  0  0  0  0  0  0  0  0  0
   -1.1899    2.5633    2.7989 C   0  0  0  0  0  0  0  0  0  0  0  0
   -1.9252    0.7448    1.1750 C   0  0  0  0  0  0  0  0  0  0  0  0
   -2.5265    1.6795    0.1047 C   0  0  0  0  0  0  0  0  0  0  0  0
   -3.5416    0.9987   -0.8564 C   0  0  2  0  0  0  0  0  0  0  0  0
   -4.7115    0.4989   -0.1243 N   0  0  0  0  0  0  0  0  0  0  0  0
   -2.9442   -0.1317   -1.7466 C   0  0  2  0  0  0  0  0  0  0  0  0
   -1.7207    0.3275   -2.5545 C   0  0  0  0  0  0  0  0  0  0  0  0
   -3.9927   -0.6605   -2.6907 C   0  0  0  0  0  0  0  0  0  0  0  0
   -4.4206   -1.9799   -2.5795 O   0  0  0  0  0  0  0  0  0  0  0  0
   -4.4899    0.0870   -3.5764 O   0  0  0  0  0  0  0  0  0  0  0  0
    0.0079    0.3117    2.7920 C   0  0  0  0  0  0  0  0  0  0  0  0
    1.5606    0.2797    2.6817 C   0  0  2  0  0  0  0  0  0  0  0  0
    2.2193    1.6588    2.8588 C   0  0  0  0  0  0  0  0  0  0  0  0
    2.1210   -0.5142    1.4618 C   0  0  2  0  0  0  0  0  0  0  0  0
    1.7588    0.0930    0.0938 C   0  0  0  0  0  0  0  0  0  0  0  0
    2.4589   -0.6361   -1.0237 C   0  0  0  0  0  0  0  0  0  0  0  0
    1.8035   -1.6651   -1.7220 C   0  0  0  0  0  0  0  0  0  0  0  0
    2.4666   -2.3591   -2.7385 C   0  0  0  0  0  0  0  0  0  0  0  0
    3.7881   -2.0373   -3.0598 C   0  0  0  0  0  0  0  0  0  0  0  0
    4.4497   -1.0221   -2.3635 C   0  0  0  0  0  0  0  0  0  0  0  0
    3.7902   -0.3248   -1.3466 C   0  0  0  0  0  0  0  0  0  0  0  0
    1.6273   -1.8463    1.5057 O   0  0  0  0  0  0  0  0  0  0  0  0
    2.6293   -2.7443    1.9288 C   0  0  0  0  0  0  0  0  0  0  0  0
   -0.0396    1.7972    1.1664 H   0  0  0  0  0  0  0  0  0  0  0  0
   -1.5707    3.3930    2.1684 H   0  0  0  0  0  0  0  0  0  0  0  0
   -1.9903    2.2444    3.5005 H   0  0  0  0  0  0  0  0  0  0  0  0
   -0.3410    2.9643    3.3899 H   0  0  0  0  0  0  0  0  0  0  0  0
   -1.5699   -0.1809    0.6813 H   0  0  0  0  0  0  0  0  0  0  0  0
   -2.7085    0.4552    1.9083 H   0  0  0  0  0  0  0  0  0  0  0  0
   -1.7138    2.1458   -0.4907 H   0  0  0  0  0  0  0  0  0  0  0  0
   -3.0508    2.5151    0.6154 H   0  0  0  0  0  0  0  0  0  0  0  0
   -3.8995    1.8010   -1.5408 H   0  0  0  0  0  0  0  0  0  0  0  0
   -4.4264   -0.2820    0.5094 H   0  0  0  0  0  0  0  0  0  0  0  0
   -5.1053    1.2668    0.4667 H   0  0  0  0  0  0  0  0  0  0  0  0
   -2.6257   -0.9791   -1.1033 H   0  0  0  0  0  0  0  0  0  0  0  0
   -1.9522    1.2486   -3.1313 H   0  0  0  0  0  0  0  0  0  0  0  0
   -1.4061   -0.4694   -3.2626 H   0  0  0  0  0  0  0  0  0  0  0  0
   -0.8602    0.5253   -1.8844 H   0  0  0  0  0  0  0  0  0  0  0  0
   -5.1269   -2.3513   -3.2035 H   0  0  0  0  0  0  0  0  0  0  0  0
   -0.3730   -0.7078    2.5673 H   0  0  0  0  0  0  0  0  0  0  0  0
   -0.2538    0.4614    3.8636 H   0  0  0  0  0  0  0  0  0  0  0  0
    1.8958   -0.3025    3.5699 H   0  0  0  0  0  0  0  0  0  0  0  0
    3.3241    1.5504    2.8952 H   0  0  0  0  0  0  0  0  0  0  0  0
    1.8944    2.1116    3.8192 H   0  0  0  0  0  0  0  0  0  0  0  0
    1.9681    2.3554    2.0354 H   0  0  0  0  0  0  0  0  0  0  0  0
    3.2372   -0.4645    1.5341 H   0  0  0  0  0  0  0  0  0  0  0  0
    2.0450    1.1647    0.0531 H   0  0  0  0  0  0  0  0  0  0  0  0
    0.6661    0.0259   -0.0683 H   0  0  0  0  0  0  0  0  0  0  0  0
    0.7818   -1.9300   -1.4786 H   0  0  0  0  0  0  0  0  0  0  0  0
    1.9567   -3.1486   -3.2753 H   0  0  0  0  0  0  0  0  0  0  0  0
    4.3003   -2.5766   -3.8460 H   0  0  0  0  0  0  0  0  0  0  0  0
    5.4747   -0.7770   -2.6100 H   0  0  0  0  0  0  0  0  0  0  0  0
    4.3159    0.4549   -0.8093 H   0  0  0  0  0  0  0  0  0  0  0  0
    2.1862   -3.7578    2.0093 H   0  0  0  0  0  0  0  0  0  0  0  0
    3.4541   -2.7924    1.1837 H   0  0  0  0  0  0  0  0  0  0  0  0
    3.0241   -2.4648    2.9308 H   0  0  0  0  0  0  0  0  0  0  0  0
  1  2  1  0
  1  3  1  0
  3  4  1  0
  4  5  1  0
  5  6  1  0
  5  7  1  0
  7  8  1  0
  7  9  1  0
  9 10  1  0
  9 11  2  0
  1 12  1  0
 12 13  1  0
 13 14  1  0
 13 15  1  0
 15 16  1  0
 16 17  1  0
 17 18  2  0
 18 19  1  0
 19 20  2  0
 20 21  1  0
 21 22  2  0
 15 23  1  0
 23 24  1  0
 22 17  1  0
  1 25  1  6
  2 26  1  0
  2 27  1  0
  2 28  1  0
  3 29  1  0
  3 30  1  0
  4 31  1  0
  4 32  1  0
  5 33  1  6
  6 34  1  0
  6 35  1  0
  7 36  1  1
  8 37  1  0
  8 38  1  0
  8 39  1  0
 10 40  1  0
 12 41  1  0
 12 42  1  0
 13 43  1  1
 14 44  1  0
 14 45  1  0
 14 46  1  0
 15 47  1  1
 16 48  1  0
 16 49  1  0
 18 50  1  0
 19 51  1  0
 20 52  1  0
 21 53  1  0
 22 54  1  0
 24 55  1  0
 24 56  1  0
 24 57  1  0
M  END
$$$$
