
     RDKit          3D

 21 20  0  0  0  0  0  0  0  0999 V2000
   -2.1159   -1.8608    0.7051 N   0  0  0  0  0  0  0  0  0  0  0  0
   -1.4574   -0.6413    1.1813 C   0  0  1  0  0  0  0  0  0  0  0  0
   -0.4737   -0.0772    0.1403 C   0  0  0  0  0  0  0  0  0  0  0  0
    0.9486   -1.2042   -0.0924 S   0  0  0  0  0  0  0  0  0  0  0  0
    1.7724   -0.2050   -1.3801 C   0  0  0  0  0  0  0  0  0  0  0  0
    2.4576    0.9775   -0.7697 C   0  0  0  0  0  0  0  0  0  0  0  0
    3.6311    0.8011    0.0233 N   0  0  0  0  0  0  0  0  0  0  0  0
    1.9880    2.1337   -0.9425 O   0  0  0  0  0  0  0  0  0  0  0  0
   -2.5000    0.3864    1.5139 C   0  0  0  0  0  0  0  0  0  0  0  0
   -3.4146    0.7912    0.5454 O   0  0  0  0  0  0  0  0  0  0  0  0
   -2.5411    0.8946    2.6664 O   0  0  0  0  0  0  0  0  0  0  0  0
   -1.4110   -2.6308    0.6481 H   0  0  0  0  0  0  0  0  0  0  0  0
   -2.4929   -1.7066   -0.2589 H   0  0  0  0  0  0  0  0  0  0  0  0
   -0.8915   -0.8813    2.1099 H   0  0  0  0  0  0  0  0  0  0  0  0
   -0.9924    0.0785   -0.8305 H   0  0  0  0  0  0  0  0  0  0  0  0
   -0.0906    0.9034    0.4961 H   0  0  0  0  0  0  0  0  0  0  0  0
    1.0395    0.1183   -2.1501 H   0  0  0  0  0  0  0  0  0  0  0  0
    2.5314   -0.8391   -1.8838 H   0  0  0  0  0  0  0  0  0  0  0  0
    4.0280   -0.1517    0.1809 H   0  0  0  0  0  0  0  0  0  0  0  0
    4.1040    1.6254    0.4558 H   0  0  0  0  0  0  0  0  0  0  0  0
   -4.1193    1.4880    0.7553 H   0  0  0  0  0  0  0  0  0  0  0  0
  1  2  1  0
  2  3  1  0
  3  4  1  0
  4  5  1  0
  5  6  1  0
  6  7  1  0
  6  8  2  0
  2  9  1  0
  9 10  1  0
  9 11  2  0
  1 12  1  0
  1 13  1  0
  2 14  1  1
  3 15  1  0
  3 16  1  0
  5 17  1  0
  5 18  1  0
  7 19  1  0
  7 20  1  0
 10 21  1  0
M  END
$$$$
