
     RDKit          3D

 21 20  0  0  0  0  0  0  0  0999 V2000
   -0.1243   -1.6109   -1.0616 C   0  0  0  0  0  0  0  0  0  0  0  0
   -0.2302   -0.2551   -0.3242 C   0  0  0  0  0  0  0  0  0  0  0  0
   -0.1220    0.8038   -1.2495 O   0  0  0  0  0  0  0  0  0  0  0  0
   -1.6319   -0.1801    0.3339 C   0  0  0  0  0  0  0  0  0  0  0  0
   -1.9004    1.1435    0.9893 C   0  0  0  0  0  0  0  0  0  0  0  0
   -2.2681    2.2395    0.2150 O   0  0  0  0  0  0  0  0  0  0  0  0
   -1.7750    1.2685    2.2370 O   0  0  0  0  0  0  0  0  0  0  0  0
    0.8715   -0.1336    0.7686 C   0  0  0  0  0  0  0  0  0  0  0  0
    2.2676   -0.2310    0.2258 C   0  0  0  0  0  0  0  0  0  0  0  0
    2.9036    0.9063   -0.2623 O   0  0  0  0  0  0  0  0  0  0  0  0
    2.8594   -1.3433    0.1980 O   0  0  0  0  0  0  0  0  0  0  0  0
   -0.2061   -2.4547   -0.3429 H   0  0  0  0  0  0  0  0  0  0  0  0
   -0.9359   -1.7061   -1.8146 H   0  0  0  0  0  0  0  0  0  0  0  0
    0.8421   -1.7010   -1.6005 H   0  0  0  0  0  0  0  0  0  0  0  0
    0.7024    0.6705   -1.7855 H   0  0  0  0  0  0  0  0  0  0  0  0
   -1.7448   -0.9928    1.0858 H   0  0  0  0  0  0  0  0  0  0  0  0
   -2.4160   -0.3396   -0.4384 H   0  0  0  0  0  0  0  0  0  0  0  0
   -2.4434    3.1414    0.6415 H   0  0  0  0  0  0  0  0  0  0  0  0
    0.7280   -0.9250    1.5372 H   0  0  0  0  0  0  0  0  0  0  0  0
    0.7812    0.8448    1.2866 H   0  0  0  0  0  0  0  0  0  0  0  0
    3.8424    0.8550   -0.6393 H   0  0  0  0  0  0  0  0  0  0  0  0
  1  2  1  0
  2  3  1  0
  2  4  1  0
  4  5  1  0
  5  6  1  0
  5  7  2  0
  2  8  1  0
  8  9  1  0
  9 10  1  0
  9 11  2  0
  1 12  1  0
  1 13  1  0
  1 14  1  0
  3 15  1  0
  4 16  1  0
  4 17  1  0
  6 18  1  0
  8 19  1  0
  8 20  1  0
 10 21  1  0
M  END
$$$$
