
     RDKit          3D

 34 35  0  0  0  0  0  0  0  0999 V2000
    6.3384    0.7445    0.0439 N   0  0  0  0  0  0  0  0  0  0  0  0
    5.3545   -0.0921   -1.1065 S   0  0  0  0  0  6  0  0  0  0  0  0
    5.3809    0.6412   -2.4176 O   0  0  0  0  0  0  0  0  0  0  0  0
    5.9045   -1.4782   -1.2986 O   0  0  0  0  0  0  0  0  0  0  0  0
    3.6969   -0.1812   -0.5203 C   0  0  0  0  0  0  0  0  0  0  0  0
    3.1615    0.8701    0.2331 C   0  0  0  0  0  0  0  0  0  0  0  0
    1.8431    0.8082    0.6944 C   0  0  0  0  0  0  0  0  0  0  0  0
    1.0354   -0.3053    0.3986 C   0  0  0  0  0  0  0  0  0  0  0  0
    1.5829   -1.3601   -0.3539 C   0  0  0  0  0  0  0  0  0  0  0  0
    2.9010   -1.2949   -0.8147 C   0  0  0  0  0  0  0  0  0  0  0  0
   -0.3632   -0.3910    0.8834 C   0  0  0  0  0  0  0  0  0  0  0  0
   -0.8942   -1.5253    1.0354 O   0  0  0  0  0  0  0  0  0  0  0  0
   -1.1275    0.7936    1.1651 N   0  0  0  0  0  0  0  0  0  0  0  0
   -2.4792    0.7375    1.7177 C   0  0  0  0  0  0  0  0  0  0  0  0
   -3.4617    0.3174    0.6564 C   0  0  0  0  0  0  0  0  0  0  0  0
   -4.0486   -0.9590    0.6983 C   0  0  0  0  0  0  0  0  0  0  0  0
   -4.9458   -1.3557   -0.2979 C   0  0  0  0  0  0  0  0  0  0  0  0
   -5.2619   -0.4846   -1.3433 C   0  0  0  0  0  0  0  0  0  0  0  0
   -4.6805    0.7848   -1.3956 C   0  0  0  0  0  0  0  0  0  0  0  0
   -3.7818    1.1878   -0.4021 C   0  0  0  0  0  0  0  0  0  0  0  0
   -3.2236    2.4230   -0.4723 F   0  0  0  0  0  0  0  0  0  0  0  0
    6.3264    0.1810    0.9234 H   0  0  0  0  0  0  0  0  0  0  0  0
    7.3184    0.7205   -0.3168 H   0  0  0  0  0  0  0  0  0  0  0  0
    3.7655    1.7372    0.4684 H   0  0  0  0  0  0  0  0  0  0  0  0
    1.4717    1.6228    1.3011 H   0  0  0  0  0  0  0  0  0  0  0  0
    0.9868   -2.2309   -0.5977 H   0  0  0  0  0  0  0  0  0  0  0  0
    3.2979   -2.1126   -1.4025 H   0  0  0  0  0  0  0  0  0  0  0  0
   -0.7448    1.7330    0.9178 H   0  0  0  0  0  0  0  0  0  0  0  0
   -2.7642    1.7437    2.0948 H   0  0  0  0  0  0  0  0  0  0  0  0
   -2.5003    0.0490    2.5906 H   0  0  0  0  0  0  0  0  0  0  0  0
   -3.8111   -1.6477    1.4995 H   0  0  0  0  0  0  0  0  0  0  0  0
   -5.3951   -2.3397   -0.2599 H   0  0  0  0  0  0  0  0  0  0  0  0
   -5.9563   -0.7938   -2.1139 H   0  0  0  0  0  0  0  0  0  0  0  0
   -4.9259    1.4565   -2.2082 H   0  0  0  0  0  0  0  0  0  0  0  0
  1  2  1  0
  2  3  2  0
  2  4  2  0
  2  5  1  0
  5  6  2  0
  6  7  1  0
  7  8  2  0
  8  9  1  0
  9 10  2  0
  8 11  1  0
 11 12  2  0
 11 13  1  0
 13 14  1  0
 14 15  1  0
 15 16  2  0
 16 17  1  0
 17 18  2  0
 18 19  1  0
 19 20  2  0
 20 21  1  0
 10  5  1  0
 20 15  1  0
  1 22  1  0
  1 23  1  0
  6 24  1  0
  7 25  1  0
  9 26  1  0
 10 27  1  0
 13 28  1  0
 14 29  1  0
 14 30  1  0
 16 31  1  0
 17 32  1  0
 18 33  1  0
 19 34  1  0
M  END
$$$$
