
     RDKit          3D

 17 16  0  0  0  0  0  0  0  0999 V2000
    1.4782   -1.0282   -1.1660 C   0  0  0  0  0  0  0  0  0  0  0  0
    0.4838    0.0197   -0.6595 C   0  0  1  0  0  0  0  0  0  0  0  0
   -0.5185   -0.5992    0.2137 N   0  0  0  0  0  0  0  0  0  0  0  0
   -1.7265    0.0774    0.5876 C   0  0  0  0  0  0  0  0  0  0  0  0
   -2.6672   -0.5639    1.4475 N   0  0  0  0  0  0  0  0  0  0  0  0
   -1.9657    1.2392    0.1608 O   0  0  0  0  0  0  0  0  0  0  0  0
    1.2124    1.1064    0.0771 C   0  0  0  0  0  0  0  0  0  0  0  0
    1.3796    2.3528   -0.5180 O   0  0  0  0  0  0  0  0  0  0  0  0
    1.6938    0.8869    1.2216 O   0  0  0  0  0  0  0  0  0  0  0  0
    2.2169   -0.5566   -1.8491 H   0  0  0  0  0  0  0  0  0  0  0  0
    0.9378   -1.8197   -1.7276 H   0  0  0  0  0  0  0  0  0  0  0  0
    2.0202   -1.4986   -0.3173 H   0  0  0  0  0  0  0  0  0  0  0  0
   -0.0278    0.4561   -1.5459 H   0  0  0  0  0  0  0  0  0  0  0  0
   -0.3593   -1.5654    0.5806 H   0  0  0  0  0  0  0  0  0  0  0  0
   -3.5484   -0.0760    1.7228 H   0  0  0  0  0  0  0  0  0  0  0  0
   -2.4854   -1.5256    1.8107 H   0  0  0  0  0  0  0  0  0  0  0  0
    1.8760    3.0947   -0.0392 H   0  0  0  0  0  0  0  0  0  0  0  0
  1  2  1  0
  2  3  1  0
  3  4  1  0
  4  5  1  0
  4  6  2  0
  2  7  1  0
  7  8  1  0
  7  9  2  0
  1 10  1  0
  1 11  1  0
  1 12  1  0
  2 13  1  6
  3 14  1  0
  5 15  1  0
  5 16  1  0
  8 17  1  0
M  END
$$$$
