
     RDKit          3D

 39 42  0  0  0  0  0  0  0  0999 V2000
   -2.0846    0.1550   -2.7202 C   0  0  0  0  0  0  0  0  0  0  0  0
   -2.8332    0.0868   -1.4707 N   0  0  0  0  0  0  0  0  0  0  0  0
   -4.1563    0.1530   -1.4062 N   0  0  0  0  0  0  0  0  0  0  0  0
   -4.5129    0.1047   -0.1029 C   0  0  0  0  0  0  0  0  0  0  0  0
   -5.9046    0.2183    0.3561 C   0  0  0  0  0  0  0  0  0  0  0  0
   -6.9284    0.3343   -0.5787 O   0  0  0  0  0  0  0  0  0  0  0  0
   -6.1790    0.2150    1.5855 O   0  0  0  0  0  0  0  0  0  0  0  0
   -3.3704   -0.0116    0.6757 C   0  0  0  0  0  0  0  0  0  0  0  0
   -2.3354    0.0051   -0.2194 C   0  0  0  0  0  0  0  0  0  0  0  0
   -0.9343    0.0154    0.2230 C   0  0  0  0  0  0  0  0  0  0  0  0
    0.0881    0.2322   -0.6441 N   0  0  0  0  0  0  0  0  0  0  0  0
    1.3774    0.2645   -0.2147 C   0  0  0  0  0  0  0  0  0  0  0  0
    2.4280    0.5258   -1.1561 N   0  0  0  0  0  0  0  0  0  0  0  0
    3.8276    0.3610   -0.8725 C   0  0  0  0  0  0  0  0  0  0  0  0
    4.2939   -0.6959   -0.0684 C   0  0  0  0  0  0  0  0  0  0  0  0
    5.6633   -0.8485    0.1708 C   0  0  0  0  0  0  0  0  0  0  0  0
    6.5779    0.0403   -0.3999 C   0  0  0  0  0  0  0  0  0  0  0  0
    6.1252    1.0779   -1.2187 C   0  0  0  0  0  0  0  0  0  0  0  0
    4.7568    1.2333   -1.4609 C   0  0  0  0  0  0  0  0  0  0  0  0
    1.6508    0.0985    1.1087 N   0  0  0  0  0  0  0  0  0  0  0  0
    0.6608   -0.1189    2.0128 C   0  0  0  0  0  0  0  0  0  0  0  0
   -0.6726   -0.1530    1.5949 C   0  0  0  0  0  0  0  0  0  0  0  0
   -1.7896   -0.4980    2.5688 C   0  0  0  0  0  0  0  0  0  0  0  0
   -3.1680    0.0784    2.1616 C   0  0  0  0  0  0  0  0  0  0  0  0
   -1.3820   -0.7021   -2.7868 H   0  0  0  0  0  0  0  0  0  0  0  0
   -1.5184    1.1088   -2.7665 H   0  0  0  0  0  0  0  0  0  0  0  0
   -2.7794    0.1095   -3.5855 H   0  0  0  0  0  0  0  0  0  0  0  0
   -7.8944    0.4150   -0.2843 H   0  0  0  0  0  0  0  0  0  0  0  0
    2.1574    0.9368   -2.0784 H   0  0  0  0  0  0  0  0  0  0  0  0
    3.6061   -1.4170    0.3528 H   0  0  0  0  0  0  0  0  0  0  0  0
    6.0162   -1.6620    0.7914 H   0  0  0  0  0  0  0  0  0  0  0  0
    7.6375   -0.0804   -0.2150 H   0  0  0  0  0  0  0  0  0  0  0  0
    6.8348    1.7608   -1.6679 H   0  0  0  0  0  0  0  0  0  0  0  0
    4.4180    2.0398   -2.0991 H   0  0  0  0  0  0  0  0  0  0  0  0
    0.9147   -0.2695    3.0540 H   0  0  0  0  0  0  0  0  0  0  0  0
   -1.5360   -0.1298    3.5866 H   0  0  0  0  0  0  0  0  0  0  0  0
   -1.8667   -1.6055    2.6209 H   0  0  0  0  0  0  0  0  0  0  0  0
   -3.9658   -0.4811    2.6931 H   0  0  0  0  0  0  0  0  0  0  0  0
   -3.2228    1.1470    2.4605 H   0  0  0  0  0  0  0  0  0  0  0  0
  1  2  1  0
  2  3  1  0
  3  4  2  0
  4  5  1  0
  5  6  1  0
  5  7  2  0
  4  8  1  0
  8  9  2  0
  9 10  1  0
 10 11  2  0
 11 12  1  0
 12 13  1  0
 13 14  1  0
 14 15  2  0
 15 16  1  0
 16 17  2  0
 17 18  1  0
 18 19  2  0
 12 20  2  0
 20 21  1  0
 21 22  2  0
 22 23  1  0
 23 24  1  0
  9  2  1  0
 22 10  1  0
 24  8  1  0
 19 14  1  0
  1 25  1  0
  1 26  1  0
  1 27  1  0
  6 28  1  0
 13 29  1  0
 15 30  1  0
 16 31  1  0
 17 32  1  0
 18 33  1  0
 19 34  1  0
 21 35  1  0
 23 36  1  0
 23 37  1  0
 24 38  1  0
 24 39  1  0
M  END
$$$$
