
     RDKit          3D

 39 38  0  0  0  0  0  0  0  0999 V2000
    3.0515   -0.5900   -0.2115 C   0  0  2  0  0  0  0  0  0  0  0  0
    2.2298   -1.5665   -0.7971 O   0  0  0  0  0  0  0  0  0  0  0  0
    2.2082    0.6679    0.0927 C   0  0  0  0  0  0  0  0  0  0  0  0
    1.3108    0.5223    1.3375 C   0  0  0  0  0  0  0  0  0  0  0  0
    0.1902   -0.5306    1.2296 C   0  0  0  0  0  0  0  0  0  0  0  0
   -0.7877   -0.3261    0.0585 C   0  0  0  0  0  0  0  0  0  0  0  0
   -1.5406    1.0131    0.1348 C   0  0  0  0  0  0  0  0  0  0  0  0
   -2.6581    1.1158   -0.9256 C   0  0  0  0  0  0  0  0  0  0  0  0
   -4.0762    0.9526   -0.3460 C   0  0  0  0  0  0  0  0  0  0  0  0
   -4.3816   -0.4452    0.2169 C   0  0  0  0  0  0  0  0  0  0  0  0
   -4.4531   -1.5188   -0.8688 C   0  0  0  0  0  0  0  0  0  0  0  0
    4.2061   -0.2702   -1.1809 C   0  0  0  0  0  0  0  0  0  0  0  0
    5.2732    0.5556   -0.5283 C   0  0  0  0  0  0  0  0  0  0  0  0
    6.1031   -0.0171    0.4305 O   0  0  0  0  0  0  0  0  0  0  0  0
    5.4105    1.7700   -0.8354 O   0  0  0  0  0  0  0  0  0  0  0  0
    3.4783   -0.9798    0.7435 H   0  0  0  0  0  0  0  0  0  0  0  0
    2.6798   -2.4415   -0.6638 H   0  0  0  0  0  0  0  0  0  0  0  0
    2.8873    1.5238    0.2943 H   0  0  0  0  0  0  0  0  0  0  0  0
    1.6060    0.9526   -0.7958 H   0  0  0  0  0  0  0  0  0  0  0  0
    0.8598    1.5108    1.5686 H   0  0  0  0  0  0  0  0  0  0  0  0
    1.9496    0.2644    2.2102 H   0  0  0  0  0  0  0  0  0  0  0  0
   -0.3887   -0.5195    2.1789 H   0  0  0  0  0  0  0  0  0  0  0  0
    0.6386   -1.5433    1.1554 H   0  0  0  0  0  0  0  0  0  0  0  0
   -1.5160   -1.1623    0.0850 H   0  0  0  0  0  0  0  0  0  0  0  0
   -0.2524   -0.4027   -0.9108 H   0  0  0  0  0  0  0  0  0  0  0  0
   -1.9514    1.1631    1.1573 H   0  0  0  0  0  0  0  0  0  0  0  0
   -0.8143    1.8339   -0.0493 H   0  0  0  0  0  0  0  0  0  0  0  0
   -2.4930    0.4046   -1.7628 H   0  0  0  0  0  0  0  0  0  0  0  0
   -2.6090    2.1305   -1.3784 H   0  0  0  0  0  0  0  0  0  0  0  0
   -4.8166    1.1923   -1.1403 H   0  0  0  0  0  0  0  0  0  0  0  0
   -4.2225    1.7018    0.4626 H   0  0  0  0  0  0  0  0  0  0  0  0
   -3.6350   -0.7306    0.9866 H   0  0  0  0  0  0  0  0  0  0  0  0
   -5.3697   -0.4044    0.7245 H   0  0  0  0  0  0  0  0  0  0  0  0
   -3.4611   -1.6761   -1.3388 H   0  0  0  0  0  0  0  0  0  0  0  0
   -4.7765   -2.4796   -0.4158 H   0  0  0  0  0  0  0  0  0  0  0  0
   -5.1889   -1.2317   -1.6497 H   0  0  0  0  0  0  0  0  0  0  0  0
    4.6721   -1.2194   -1.5230 H   0  0  0  0  0  0  0  0  0  0  0  0
    3.8135    0.2512   -2.0818 H   0  0  0  0  0  0  0  0  0  0  0  0
    6.8241    0.5291    0.8864 H   0  0  0  0  0  0  0  0  0  0  0  0
  1  2  1  0
  1  3  1  0
  3  4  1  0
  4  5  1  0
  5  6  1  0
  6  7  1  0
  7  8  1  0
  8  9  1  0
  9 10  1  0
 10 11  1  0
  1 12  1  0
 12 13  1  0
 13 14  1  0
 13 15  2  0
  1 16  1  1
  2 17  1  0
  3 18  1  0
  3 19  1  0
  4 20  1  0
  4 21  1  0
  5 22  1  0
  5 23  1  0
  6 24  1  0
  6 25  1  0
  7 26  1  0
  7 27  1  0
  8 28  1  0
  8 29  1  0
  9 30  1  0
  9 31  1  0
 10 32  1  0
 10 33  1  0
 11 34  1  0
 11 35  1  0
 11 36  1  0
 12 37  1  0
 12 38  1  0
 14 39  1  0
M  END
$$$$
