
     RDKit          3D

 13 13  0  0  0  0  0  0  0  0999 V2000
    2.2839   -0.9638   -0.2751 O   0  0  0  0  0  0  0  0  0  0  0  0
    1.0115   -0.4155   -0.1221 C   0  0  0  0  0  0  0  0  0  0  0  0
   -0.1049   -1.2501    0.0382 C   0  0  0  0  0  0  0  0  0  0  0  0
   -1.3797   -0.6966    0.1914 C   0  0  0  0  0  0  0  0  0  0  0  0
   -1.5452    0.6911    0.1854 C   0  0  0  0  0  0  0  0  0  0  0  0
   -0.4363    1.5275    0.0261 C   0  0  0  0  0  0  0  0  0  0  0  0
    0.8424    0.9780   -0.1278 C   0  0  0  0  0  0  0  0  0  0  0  0
    2.2237    2.0448   -0.3267 Cl  0  0  0  0  0  0  0  0  0  0  0  0
    2.4328   -1.9661   -0.2746 H   0  0  0  0  0  0  0  0  0  0  0  0
    0.0147   -2.3261    0.0440 H   0  0  0  0  0  0  0  0  0  0  0  0
   -2.2388   -1.3432    0.3148 H   0  0  0  0  0  0  0  0  0  0  0  0
   -2.5325    1.1185    0.3041 H   0  0  0  0  0  0  0  0  0  0  0  0
   -0.5716    2.6016    0.0223 H   0  0  0  0  0  0  0  0  0  0  0  0
  1  2  1  0
  2  3  2  0
  3  4  1  0
  4  5  2  0
  5  6  1  0
  6  7  2  0
  7  8  1  0
  7  2  1  0
  1  9  1  0
  3 10  1  0
  4 11  1  0
  5 12  1  0
  6 13  1  0
M  END
$$$$
