
     RDKit          3D

 41 45  0  0  0  0  0  0  0  0999 V2000
    1.1239    1.6861    1.1132 C   0  0  2  0  0  0  0  0  0  0  0  0
    2.4321    1.1011    1.0667 O   0  0  0  0  0  0  0  0  0  0  0  0
    2.3865   -0.1037    0.3963 C   0  0  0  0  0  0  0  0  0  0  0  0
    3.4620   -0.8491   -0.0923 C   0  0  0  0  0  0  0  0  0  0  0  0
    4.7785   -0.5152    0.2147 O   0  0  0  0  0  0  0  0  0  0  0  0
    3.1803   -1.9374   -0.9400 C   0  0  0  0  0  0  0  0  0  0  0  0
    1.8508   -2.2083   -1.3308 C   0  0  0  0  0  0  0  0  0  0  0  0
    0.7914   -1.4406   -0.8093 C   0  0  0  0  0  0  0  0  0  0  0  0
    1.0999   -0.4582    0.1325 C   0  0  0  0  0  0  0  0  0  0  0  0
    0.1433    0.5047    0.7668 C   0  0  1  0  0  0  0  0  0  0  0  0
   -0.4408   -0.1490    2.0594 C   0  0  0  0  0  0  0  0  0  0  0  0
   -1.8389   -0.7761    1.8728 C   0  0  0  0  0  0  0  0  0  0  0  0
   -2.0209   -1.3975    0.5438 N   0  0  0  0  0  0  0  0  0  0  0  0
   -3.3952   -1.9023    0.3967 C   0  0  0  0  0  0  0  0  0  0  0  0
   -1.6006   -0.5872   -0.6393 C   0  0  2  0  0  0  0  0  0  0  0  0
   -0.5869   -1.4650   -1.4262 C   0  0  0  0  0  0  0  0  0  0  0  0
   -0.9967    0.8130   -0.2420 C   0  0  1  0  0  0  0  0  0  0  0  0
   -2.0279    1.5884    0.3346 O   0  0  0  0  0  0  0  0  0  0  0  0
   -0.4432    1.5903   -1.4602 C   0  0  0  0  0  0  0  0  0  0  0  0
    0.1572    2.9374   -1.0472 C   0  0  0  0  0  0  0  0  0  0  0  0
    1.0839    2.8542    0.1444 C   0  0  0  0  0  0  0  0  0  0  0  0
    1.8244    3.8017    0.3591 O   0  0  0  0  0  0  0  0  0  0  0  0
    0.9431    2.0894    2.1323 H   0  0  0  0  0  0  0  0  0  0  0  0
    4.9977    0.2708    0.8154 H   0  0  0  0  0  0  0  0  0  0  0  0
    3.9905   -2.5269   -1.3494 H   0  0  0  0  0  0  0  0  0  0  0  0
    1.6557   -2.9761   -2.0688 H   0  0  0  0  0  0  0  0  0  0  0  0
    0.2542   -0.9222    2.4585 H   0  0  0  0  0  0  0  0  0  0  0  0
   -0.5423    0.6098    2.8647 H   0  0  0  0  0  0  0  0  0  0  0  0
   -1.9711   -1.5515    2.6593 H   0  0  0  0  0  0  0  0  0  0  0  0
   -2.6248   -0.0105    2.0575 H   0  0  0  0  0  0  0  0  0  0  0  0
   -4.1255   -1.0632    0.3896 H   0  0  0  0  0  0  0  0  0  0  0  0
   -3.4914   -2.4769   -0.5497 H   0  0  0  0  0  0  0  0  0  0  0  0
   -3.6436   -2.5953    1.2292 H   0  0  0  0  0  0  0  0  0  0  0  0
   -2.4640   -0.3903   -1.3177 H   0  0  0  0  0  0  0  0  0  0  0  0
   -0.9503   -2.5145   -1.4768 H   0  0  0  0  0  0  0  0  0  0  0  0
   -0.5169   -1.0993   -2.4730 H   0  0  0  0  0  0  0  0  0  0  0  0
   -1.6220    2.2784    0.9208 H   0  0  0  0  0  0  0  0  0  0  0  0
    0.3463    1.0181   -1.9900 H   0  0  0  0  0  0  0  0  0  0  0  0
   -1.2626    1.7692   -2.1900 H   0  0  0  0  0  0  0  0  0  0  0  0
   -0.6565    3.6580   -0.8168 H   0  0  0  0  0  0  0  0  0  0  0  0
    0.7206    3.3458   -1.9143 H   0  0  0  0  0  0  0  0  0  0  0  0
  1  2  1  0
  2  3  1  0
  3  4  2  0
  4  5  1  0
  4  6  1  0
  6  7  2  0
  7  8  1  0
  8  9  2  0
  9 10  1  0
 10 11  1  1
 11 12  1  0
 12 13  1  0
 13 14  1  0
 13 15  1  0
 15 16  1  0
 15 17  1  0
 17 18  1  1
 17 19  1  0
 19 20  1  0
 20 21  1  0
 21 22  2  0
 10  1  1  0
 17 10  1  0
 21  1  1  0
  9  3  1  0
 16  8  1  0
  1 23  1  1
  5 24  1  0
  6 25  1  0
  7 26  1  0
 11 27  1  0
 11 28  1  0
 12 29  1  0
 12 30  1  0
 14 31  1  0
 14 32  1  0
 14 33  1  0
 15 34  1  6
 16 35  1  0
 16 36  1  0
 18 37  1  0
 19 38  1  0
 19 39  1  0
 20 40  1  0
 20 41  1  0
M  END
$$$$
