
     RDKit          3D

 37 40  0  0  0  0  0  0  0  0999 V2000
    4.7973   -2.4309    0.8746 C   0  0  0  0  0  0  0  0  0  0  0  0
    3.4990   -1.8686    0.4018 C   0  0  0  0  0  0  0  0  0  0  0  0
    2.5527   -2.5854   -0.2324 N   0  0  0  0  0  0  0  0  0  0  0  0
    1.5971   -1.7564   -0.5369 O   0  0  0  0  0  0  0  0  0  0  0  0
    1.8794   -0.5340   -0.1434 C   0  0  0  0  0  0  0  0  0  0  0  0
    3.1174   -0.5461    0.4710 C   0  0  0  0  0  0  0  0  0  0  0  0
    0.9867    0.6398   -0.3370 C   0  0  0  0  0  0  0  0  0  0  0  0
   -0.4207    0.5089   -0.2329 C   0  0  0  0  0  0  0  0  0  0  0  0
   -1.0200   -0.7983    0.1282 C   0  0  0  0  0  0  0  0  0  0  0  0
   -0.9107   -1.2862    1.4398 C   0  0  0  0  0  0  0  0  0  0  0  0
   -1.4628   -2.5262    1.7752 C   0  0  0  0  0  0  0  0  0  0  0  0
   -2.1253   -3.2836    0.8047 C   0  0  0  0  0  0  0  0  0  0  0  0
   -2.2361   -2.8027   -0.5034 C   0  0  0  0  0  0  0  0  0  0  0  0
   -1.6843   -1.5637   -0.8433 C   0  0  0  0  0  0  0  0  0  0  0  0
   -1.2439    1.6436   -0.4372 C   0  0  0  0  0  0  0  0  0  0  0  0
   -0.6362    2.8816   -0.7551 C   0  0  0  0  0  0  0  0  0  0  0  0
    0.7182    2.9728   -0.8555 N   0  0  0  0  0  0  0  0  0  0  0  0
    1.5302    1.9001   -0.6604 C   0  0  0  0  0  0  0  0  0  0  0  0
    2.7759    2.0443   -0.7953 O   0  0  0  0  0  0  0  0  0  0  0  0
   -1.4320    4.0201   -0.9625 C   0  0  0  0  0  0  0  0  0  0  0  0
   -2.8202    3.9421   -0.8497 C   0  0  0  0  0  0  0  0  0  0  0  0
   -3.4289    2.7294   -0.5246 C   0  0  0  0  0  0  0  0  0  0  0  0
   -5.1746    2.6398   -0.3740 Cl  0  0  0  0  0  0  0  0  0  0  0  0
   -2.6504    1.5871   -0.3160 C   0  0  0  0  0  0  0  0  0  0  0  0
    4.6881   -3.5163    1.0808 H   0  0  0  0  0  0  0  0  0  0  0  0
    5.1168   -1.9191    1.8067 H   0  0  0  0  0  0  0  0  0  0  0  0
    5.5707   -2.2839    0.0924 H   0  0  0  0  0  0  0  0  0  0  0  0
    3.6577    0.2777    0.9187 H   0  0  0  0  0  0  0  0  0  0  0  0
   -0.3969   -0.7076    2.1976 H   0  0  0  0  0  0  0  0  0  0  0  0
   -1.3763   -2.9005    2.7870 H   0  0  0  0  0  0  0  0  0  0  0  0
   -2.5520   -4.2434    1.0659 H   0  0  0  0  0  0  0  0  0  0  0  0
   -2.7480   -3.3907   -1.2541 H   0  0  0  0  0  0  0  0  0  0  0  0
   -1.7712   -1.2009   -1.8601 H   0  0  0  0  0  0  0  0  0  0  0  0
    1.1569    3.8922   -1.0950 H   0  0  0  0  0  0  0  0  0  0  0  0
   -0.9760    4.9710   -1.2093 H   0  0  0  0  0  0  0  0  0  0  0  0
   -3.4221    4.8274   -1.0110 H   0  0  0  0  0  0  0  0  0  0  0  0
   -3.1556    0.6666   -0.0554 H   0  0  0  0  0  0  0  0  0  0  0  0
  1  2  1  0
  2  3  2  0
  3  4  1  0
  4  5  1  0
  5  6  2  0
  5  7  1  0
  7  8  2  0
  8  9  1  0
  9 10  2  0
 10 11  1  0
 11 12  2  0
 12 13  1  0
 13 14  2  0
  8 15  1  0
 15 16  2  0
 16 17  1  0
 17 18  1  0
 18 19  2  0
 16 20  1  0
 20 21  2  0
 21 22  1  0
 22 23  1  0
 22 24  2  0
  6  2  1  0
 18  7  1  0
 14  9  1  0
 24 15  1  0
  1 25  1  0
  1 26  1  0
  1 27  1  0
  6 28  1  0
 10 29  1  0
 11 30  1  0
 12 31  1  0
 13 32  1  0
 14 33  1  0
 17 34  1  0
 20 35  1  0
 21 36  1  0
 24 37  1  0
M  END
$$$$
