
     RDKit          3D

140143  0  0  0  0  0  0  0  0999 V2000
    3.0275   -3.7682   -0.0657 C   0  0  0  0  0  0  0  0  0  0  0  0
    1.8843   -2.3615    0.0959 S   0  0  0  0  0  0  0  0  0  0  0  0
    1.4340   -2.3345   -1.6737 C   0  0  0  0  0  0  0  0  0  0  0  0
    0.3261   -1.3135   -1.9595 C   0  0  0  0  0  0  0  0  0  0  0  0
    0.8362    0.1368   -2.0823 C   0  0  2  0  0  0  0  0  0  0  0  0
    1.3233    0.6356   -0.7940 N   0  0  0  0  0  0  0  0  0  0  0  0
    2.3494    1.6344   -0.6961 C   0  0  0  0  0  0  0  0  0  0  0  0
    2.8740    2.1105   -1.7402 O   0  0  0  0  0  0  0  0  0  0  0  0
    2.8393    2.0844    0.6535 C   0  0  2  0  0  0  0  0  0  0  0  0
    2.7532    3.6151    0.7902 C   0  0  0  0  0  0  0  0  0  0  0  0
    3.1028    4.0482    2.1905 C   0  0  0  0  0  0  0  0  0  0  0  0
    4.3970    4.4975    2.4941 C   0  0  0  0  0  0  0  0  0  0  0  0
    4.7353    4.8436    3.8056 C   0  0  0  0  0  0  0  0  0  0  0  0
    3.7836    4.7336    4.8372 C   0  0  0  0  0  0  0  0  0  0  0  0
    4.0691    5.0607    6.1697 O   0  0  0  0  0  0  0  0  0  0  0  0
    5.5792    5.6415    6.7260 S   0  0  0  0  0  6  0  0  0  0  0  0
    5.9739    7.0671    5.9275 O   0  0  0  0  0  0  0  0  0  0  0  0
    5.4967    5.9048    8.2026 O   0  0  0  0  0  0  0  0  0  0  0  0
    6.6414    4.6106    6.4672 O   0  0  0  0  0  0  0  0  0  0  0  0
    2.4968    4.2766    4.5311 C   0  0  0  0  0  0  0  0  0  0  0  0
    2.1555    3.9377    3.2193 C   0  0  0  0  0  0  0  0  0  0  0  0
    4.2215    1.6350    0.8353 N   0  0  0  0  0  0  0  0  0  0  0  0
    4.5569    0.4225    1.5263 C   0  0  0  0  0  0  0  0  0  0  0  0
    3.6621   -0.2409    2.1181 O   0  0  0  0  0  0  0  0  0  0  0  0
    5.9718   -0.0967    1.4915 C   0  0  1  0  0  0  0  0  0  0  0  0
    6.3585   -0.5721    2.8223 N   0  0  0  0  0  0  0  0  0  0  0  0
    6.1223   -1.2161    0.4414 C   0  0  0  0  0  0  0  0  0  0  0  0
    5.8902   -0.7028   -0.9478 C   0  0  0  0  0  0  0  0  0  0  0  0
    4.6230   -0.7848   -1.5154 O   0  0  0  0  0  0  0  0  0  0  0  0
    6.8319   -0.1601   -1.5848 O   0  0  0  0  0  0  0  0  0  0  0  0
   -0.2789    1.0232   -2.5665 C   0  0  0  0  0  0  0  0  0  0  0  0
   -1.2292    1.3068   -1.7870 O   0  0  0  0  0  0  0  0  0  0  0  0
   -0.2966    1.4911   -3.9233 N   0  0  0  0  0  0  0  0  0  0  0  0
   -1.4361    2.2129   -4.4884 C   0  0  0  0  0  0  0  0  0  0  0  0
   -2.4220    1.2823   -5.1430 C   0  0  0  0  0  0  0  0  0  0  0  0
   -3.1530    1.7334   -6.0657 O   0  0  0  0  0  0  0  0  0  0  0  0
   -2.5871   -0.0740   -4.6940 N   0  0  0  0  0  0  0  0  0  0  0  0
   -3.6238   -0.9671   -5.2227 C   0  0  1  0  0  0  0  0  0  0  0  0
   -3.0427   -1.8271   -6.3640 C   0  0  0  0  0  0  0  0  0  0  0  0
   -1.9517   -2.7562   -5.9019 C   0  0  0  0  0  0  0  0  0  0  0  0
   -2.1154   -4.0628   -5.4512 C   0  0  0  0  0  0  0  0  0  0  0  0
   -0.9278   -4.5830   -5.0660 N   0  0  0  0  0  0  0  0  0  0  0  0
   -0.0174   -3.6133   -5.2578 C   0  0  0  0  0  0  0  0  0  0  0  0
    1.3475   -3.6701   -4.9797 C   0  0  0  0  0  0  0  0  0  0  0  0
    2.1207   -2.5250   -5.2438 C   0  0  0  0  0  0  0  0  0  0  0  0
    1.5202   -1.3643   -5.7783 C   0  0  0  0  0  0  0  0  0  0  0  0
    0.1412   -1.3377   -6.0539 C   0  0  0  0  0  0  0  0  0  0  0  0
   -0.6024   -2.4841   -5.7713 C   0  0  0  0  0  0  0  0  0  0  0  0
   -4.2497   -1.8220   -4.1346 C   0  0  0  0  0  0  0  0  0  0  0  0
   -5.1477   -2.6453   -4.4617 O   0  0  0  0  0  0  0  0  0  0  0  0
   -3.8819   -1.6858   -2.7480 N   0  0  0  0  0  0  0  0  0  0  0  0
   -4.3753   -2.6018   -1.7073 C   0  0  1  0  0  0  0  0  0  0  0  0
   -3.8200   -4.0343   -1.8915 C   0  0  0  0  0  0  0  0  0  0  0  0
   -2.2844   -4.1375   -1.9304 C   0  0  0  0  0  0  0  0  0  0  0  0
   -1.5477   -4.2449   -0.2576 S   0  0  0  0  0  0  0  0  0  0  0  0
   -1.7146   -6.0503   -0.0850 C   0  0  0  0  0  0  0  0  0  0  0  0
   -4.0746   -2.0765   -0.3222 C   0  0  0  0  0  0  0  0  0  0  0  0
   -2.9873   -1.4788   -0.1007 O   0  0  0  0  0  0  0  0  0  0  0  0
   -5.0056   -2.3062    0.7488 N   0  0  0  0  0  0  0  0  0  0  0  0
   -4.7332   -2.0183    2.1619 C   0  0  1  0  0  0  0  0  0  0  0  0
   -3.6609   -2.9792    2.7157 C   0  0  0  0  0  0  0  0  0  0  0  0
   -3.4499   -2.7863    4.1874 C   0  0  0  0  0  0  0  0  0  0  0  0
   -2.3194   -2.1185    4.6466 O   0  0  0  0  0  0  0  0  0  0  0  0
   -4.3092   -3.2063    5.0080 O   0  0  0  0  0  0  0  0  0  0  0  0
   -4.4412   -0.5448    2.3651 C   0  0  0  0  0  0  0  0  0  0  0  0
   -5.4164    0.2464    2.4805 O   0  0  0  0  0  0  0  0  0  0  0  0
   -3.0983   -0.0266    2.3839 N   0  0  0  0  0  0  0  0  0  0  0  0
   -2.8131    1.3968    2.5857 C   0  0  1  0  0  0  0  0  0  0  0  0
   -2.8799    1.7361    4.0858 C   0  0  0  0  0  0  0  0  0  0  0  0
   -2.7248    3.2165    4.3262 C   0  0  0  0  0  0  0  0  0  0  0  0
   -1.4785    3.7514    4.6939 C   0  0  0  0  0  0  0  0  0  0  0  0
   -1.3293    5.1299    4.8757 C   0  0  0  0  0  0  0  0  0  0  0  0
   -2.4194    5.9830    4.6859 C   0  0  0  0  0  0  0  0  0  0  0  0
   -3.6612    5.4591    4.3171 C   0  0  0  0  0  0  0  0  0  0  0  0
   -3.8147    4.0815    4.1346 C   0  0  0  0  0  0  0  0  0  0  0  0
   -1.4598    1.7352    2.0093 C   0  0  0  0  0  0  0  0  0  0  0  0
   -1.3372    2.7084    0.9723 N   0  0  0  0  0  0  0  0  0  0  0  0
   -0.4262    1.1626    2.4494 O   0  0  0  0  0  0  0  0  0  0  0  0
    3.4925   -3.9716    0.9205 H   0  0  0  0  0  0  0  0  0  0  0  0
    2.4740   -4.6711   -0.3965 H   0  0  0  0  0  0  0  0  0  0  0  0
    3.8268   -3.5302   -0.7976 H   0  0  0  0  0  0  0  0  0  0  0  0
    2.3296   -2.1192   -2.2931 H   0  0  0  0  0  0  0  0  0  0  0  0
    1.0577   -3.3422   -1.9532 H   0  0  0  0  0  0  0  0  0  0  0  0
   -0.4658   -1.3840   -1.1828 H   0  0  0  0  0  0  0  0  0  0  0  0
   -0.1352   -1.5996   -2.9279 H   0  0  0  0  0  0  0  0  0  0  0  0
    1.6647    0.1489   -2.8245 H   0  0  0  0  0  0  0  0  0  0  0  0
    0.8079    0.3638    0.0738 H   0  0  0  0  0  0  0  0  0  0  0  0
    2.1889    1.6402    1.4382 H   0  0  0  0  0  0  0  0  0  0  0  0
    3.4302    4.1044    0.0549 H   0  0  0  0  0  0  0  0  0  0  0  0
    1.7235    3.9575    0.5524 H   0  0  0  0  0  0  0  0  0  0  0  0
    5.1473    4.5722    1.7165 H   0  0  0  0  0  0  0  0  0  0  0  0
    5.7401    5.1867    4.0026 H   0  0  0  0  0  0  0  0  0  0  0  0
    5.1353    7.5939    5.9210 H   0  0  0  0  0  0  0  0  0  0  0  0
    1.7602    4.1759    5.3176 H   0  0  0  0  0  0  0  0  0  0  0  0
    1.1571    3.5764    3.0063 H   0  0  0  0  0  0  0  0  0  0  0  0
    4.9748    2.1304    0.3053 H   0  0  0  0  0  0  0  0  0  0  0  0
    6.6539    0.7400    1.2190 H   0  0  0  0  0  0  0  0  0  0  0  0
    5.8574   -1.4660    3.0361 H   0  0  0  0  0  0  0  0  0  0  0  0
    7.3821   -0.7872    2.8146 H   0  0  0  0  0  0  0  0  0  0  0  0
    5.4072   -2.0395    0.6556 H   0  0  0  0  0  0  0  0  0  0  0  0
    7.1484   -1.6408    0.4963 H   0  0  0  0  0  0  0  0  0  0  0  0
    4.4446   -0.4327   -2.4483 H   0  0  0  0  0  0  0  0  0  0  0  0
    0.4933    1.2419   -4.5593 H   0  0  0  0  0  0  0  0  0  0  0  0
   -1.0587    2.9312   -5.2475 H   0  0  0  0  0  0  0  0  0  0  0  0
   -1.9531    2.8040   -3.7034 H   0  0  0  0  0  0  0  0  0  0  0  0
   -1.8431   -0.4995   -4.1027 H   0  0  0  0  0  0  0  0  0  0  0  0
   -4.4493   -0.3571   -5.6509 H   0  0  0  0  0  0  0  0  0  0  0  0
   -3.8563   -2.4255   -6.8282 H   0  0  0  0  0  0  0  0  0  0  0  0
   -2.6432   -1.1604   -7.1581 H   0  0  0  0  0  0  0  0  0  0  0  0
   -3.0541   -4.5987   -5.3983 H   0  0  0  0  0  0  0  0  0  0  0  0
   -0.7592   -5.5407   -4.6854 H   0  0  0  0  0  0  0  0  0  0  0  0
    1.7972   -4.5628   -4.5644 H   0  0  0  0  0  0  0  0  0  0  0  0
    3.1817   -2.5318   -5.0319 H   0  0  0  0  0  0  0  0  0  0  0  0
    2.1244   -0.4888   -5.9763 H   0  0  0  0  0  0  0  0  0  0  0  0
   -0.3228   -0.4513   -6.4653 H   0  0  0  0  0  0  0  0  0  0  0  0
   -3.3124   -0.8612   -2.4580 H   0  0  0  0  0  0  0  0  0  0  0  0
   -5.4818   -2.6581   -1.8044 H   0  0  0  0  0  0  0  0  0  0  0  0
   -4.2109   -4.4390   -2.8492 H   0  0  0  0  0  0  0  0  0  0  0  0
   -4.2282   -4.6929   -1.0951 H   0  0  0  0  0  0  0  0  0  0  0  0
   -1.8504   -3.2653   -2.4576 H   0  0  0  0  0  0  0  0  0  0  0  0
   -1.9954   -5.0363   -2.5136 H   0  0  0  0  0  0  0  0  0  0  0  0
   -2.7777   -6.3537   -0.1728 H   0  0  0  0  0  0  0  0  0  0  0  0
   -1.1110   -6.5633   -0.8621 H   0  0  0  0  0  0  0  0  0  0  0  0
   -1.3379   -6.3515    0.9136 H   0  0  0  0  0  0  0  0  0  0  0  0
   -5.9244   -2.7474    0.5169 H   0  0  0  0  0  0  0  0  0  0  0  0
   -5.6666   -2.2388    2.7290 H   0  0  0  0  0  0  0  0  0  0  0  0
   -3.9956   -4.0256    2.5443 H   0  0  0  0  0  0  0  0  0  0  0  0
   -2.6980   -2.8660    2.1786 H   0  0  0  0  0  0  0  0  0  0  0  0
   -2.1792   -1.9567    5.6368 H   0  0  0  0  0  0  0  0  0  0  0  0
   -2.2926   -0.6827    2.2897 H   0  0  0  0  0  0  0  0  0  0  0  0
   -3.5825    1.9936    2.0468 H   0  0  0  0  0  0  0  0  0  0  0  0
   -3.8597    1.4076    4.4958 H   0  0  0  0  0  0  0  0  0  0  0  0
   -2.0991    1.1677    4.6384 H   0  0  0  0  0  0  0  0  0  0  0  0
   -0.6241    3.1020    4.8372 H   0  0  0  0  0  0  0  0  0  0  0  0
   -0.3682    5.5382    5.1585 H   0  0  0  0  0  0  0  0  0  0  0  0
   -2.3018    7.0498    4.8241 H   0  0  0  0  0  0  0  0  0  0  0  0
   -4.5045    6.1209    4.1674 H   0  0  0  0  0  0  0  0  0  0  0  0
   -4.7800    3.6894    3.8400 H   0  0  0  0  0  0  0  0  0  0  0  0
   -0.4044    2.9127    0.5535 H   0  0  0  0  0  0  0  0  0  0  0  0
   -2.1742    3.2159    0.6090 H   0  0  0  0  0  0  0  0  0  0  0  0
  1  2  1  0
  2  3  1  0
  3  4  1  0
  4  5  1  0
  5  6  1  0
  6  7  1  0
  7  8  2  0
  7  9  1  0
  9 10  1  0
 10 11  1  0
 11 12  2  0
 12 13  1  0
 13 14  2  0
 14 15  1  0
 15 16  1  0
 16 17  1  0
 16 18  2  0
 16 19  2  0
 14 20  1  0
 20 21  2  0
  9 22  1  0
 22 23  1  0
 23 24  2  0
 23 25  1  0
 25 26  1  0
 25 27  1  0
 27 28  1  0
 28 29  1  0
 28 30  2  0
  5 31  1  0
 31 32  2  0
 31 33  1  0
 33 34  1  0
 34 35  1  0
 35 36  2  0
 35 37  1  0
 37 38  1  0
 38 39  1  0
 39 40  1  0
 40 41  2  0
 41 42  1  0
 42 43  1  0
 43 44  2  0
 44 45  1  0
 45 46  2  0
 46 47  1  0
 47 48  2  0
 38 49  1  0
 49 50  2  0
 49 51  1  0
 51 52  1  0
 52 53  1  0
 53 54  1  0
 54 55  1  0
 55 56  1  0
 52 57  1  0
 57 58  2  0
 57 59  1  0
 59 60  1  0
 60 61  1  0
 61 62  1  0
 62 63  1  0
 62 64  2  0
 60 65  1  0
 65 66  2  0
 65 67  1  0
 67 68  1  0
 68 69  1  0
 69 70  1  0
 70 71  2  0
 71 72  1  0
 72 73  2  0
 73 74  1  0
 74 75  2  0
 68 76  1  0
 76 77  1  0
 76 78  2  0
 21 11  1  0
 48 40  1  0
 75 70  1  0
 48 43  1  0
  1 79  1  0
  1 80  1  0
  1 81  1  0
  3 82  1  0
  3 83  1  0
  4 84  1  0
  4 85  1  0
  5 86  1  6
  6 87  1  0
  9 88  1  1
 10 89  1  0
 10 90  1  0
 12 91  1  0
 13 92  1  0
 17 93  1  0
 20 94  1  0
 21 95  1  0
 22 96  1  0
 25 97  1  6
 26 98  1  0
 26 99  1  0
 27100  1  0
 27101  1  0
 29102  1  0
 33103  1  0
 34104  1  0
 34105  1  0
 37106  1  0
 38107  1  6
 39108  1  0
 39109  1  0
 41110  1  0
 42111  1  0
 44112  1  0
 45113  1  0
 46114  1  0
 47115  1  0
 51116  1  0
 52117  1  1
 53118  1  0
 53119  1  0
 54120  1  0
 54121  1  0
 56122  1  0
 56123  1  0
 56124  1  0
 59125  1  0
 60126  1  1
 61127  1  0
 61128  1  0
 63129  1  0
 67130  1  0
 68131  1  6
 69132  1  0
 69133  1  0
 71134  1  0
 72135  1  0
 73136  1  0
 74137  1  0
 75138  1  0
 77139  1  0
 77140  1  0
M  END
$$$$
