
     RDKit          3D

 35 38  0  0  0  0  0  0  0  0999 V2000
    1.1067    0.9374   -0.8817 C   0  0  2  0  0  0  0  0  0  0  0  0
    1.8052   -0.3320   -1.4217 C   0  0  0  0  0  0  0  0  0  0  0  0
    2.9099   -0.5644   -0.4639 C   0  0  0  0  0  0  0  0  0  0  0  0
    3.0390    0.4645    0.4359 C   0  0  0  0  0  0  0  0  0  0  0  0
    4.0321    0.4414    1.4196 C   0  0  0  0  0  0  0  0  0  0  0  0
    4.9028   -0.6577    1.4745 C   0  0  0  0  0  0  0  0  0  0  0  0
    4.7725   -1.7093    0.5497 C   0  0  0  0  0  0  0  0  0  0  0  0
    3.7700   -1.6651   -0.4313 C   0  0  0  0  0  0  0  0  0  0  0  0
    2.0396    1.5385    0.2034 C   0  0  1  0  0  0  0  0  0  0  0  0
    2.6776    2.6859   -0.2935 O   0  0  0  0  0  0  0  0  0  0  0  0
   -0.1935    0.5833   -0.3013 N   0  0  0  0  0  0  0  0  0  0  0  0
   -1.3995    0.5679   -1.0824 C   0  0  0  0  0  0  0  0  0  0  0  0
   -1.3586    0.8618   -2.3079 O   0  0  0  0  0  0  0  0  0  0  0  0
   -2.6963    0.2058   -0.4775 C   0  0  0  0  0  0  0  0  0  0  0  0
   -2.9271   -0.0475    0.8880 C   0  0  0  0  0  0  0  0  0  0  0  0
   -4.2717   -0.3252    0.9504 C   0  0  0  0  0  0  0  0  0  0  0  0
   -4.7664   -0.2350   -0.2870 C   0  0  0  0  0  0  0  0  0  0  0  0
   -3.8448    0.0898   -1.1996 N   0  0  0  0  0  0  0  0  0  0  0  0
   -6.4106   -0.5416   -0.3466 S   0  0  0  0  0  0  0  0  0  0  0  0
   -6.4663   -0.8076    1.3456 C   0  0  0  0  0  0  0  0  0  0  0  0
   -7.9222   -1.2185    2.2268 Cl  0  0  0  0  0  0  0  0  0  0  0  0
   -5.1996   -0.6503    1.9290 C   0  0  0  0  0  0  0  0  0  0  0  0
    0.9635    1.6719   -1.7062 H   0  0  0  0  0  0  0  0  0  0  0  0
    2.2252   -0.1446   -2.4334 H   0  0  0  0  0  0  0  0  0  0  0  0
    1.1231   -1.2096   -1.4539 H   0  0  0  0  0  0  0  0  0  0  0  0
    4.1304    1.2558    2.1257 H   0  0  0  0  0  0  0  0  0  0  0  0
    5.6781   -0.6949    2.2286 H   0  0  0  0  0  0  0  0  0  0  0  0
    5.4476   -2.5539    0.5936 H   0  0  0  0  0  0  0  0  0  0  0  0
    3.6657   -2.4697   -1.1477 H   0  0  0  0  0  0  0  0  0  0  0  0
    1.4857    1.7726    1.1426 H   0  0  0  0  0  0  0  0  0  0  0  0
    3.0769    3.1512    0.4875 H   0  0  0  0  0  0  0  0  0  0  0  0
   -0.2045    0.1597    0.6532 H   0  0  0  0  0  0  0  0  0  0  0  0
   -2.2277   -0.0212    1.7121 H   0  0  0  0  0  0  0  0  0  0  0  0
   -3.9835    0.2237   -2.2258 H   0  0  0  0  0  0  0  0  0  0  0  0
   -4.9794   -0.7630    2.9822 H   0  0  0  0  0  0  0  0  0  0  0  0
  1  2  1  0
  2  3  1  0
  3  4  2  0
  4  5  1  0
  5  6  2  0
  6  7  1  0
  7  8  2  0
  4  9  1  0
  9 10  1  0
  1 11  1  0
 11 12  1  0
 12 13  2  0
 12 14  1  0
 14 15  2  0
 15 16  1  0
 16 17  2  0
 17 18  1  0
 17 19  1  0
 19 20  1  0
 20 21  1  0
 20 22  2  0
  9  1  1  0
 18 14  1  0
  8  3  1  0
 22 16  1  0
  1 23  1  6
  2 24  1  0
  2 25  1  0
  5 26  1  0
  6 27  1  0
  7 28  1  0
  8 29  1  0
  9 30  1  1
 10 31  1  0
 11 32  1  0
 15 33  1  0
 18 34  1  0
 22 35  1  0
M  END
$$$$
