
     RDKit          3D

 41 42  0  0  0  0  0  0  0  0999 V2000
   -2.3828    1.8719    2.3699 C   0  0  0  0  0  0  0  0  0  0  0  0
   -2.9503    0.6766    1.6555 C   0  0  0  0  0  0  0  0  0  0  0  0
   -2.1803   -0.0275    0.7252 C   0  0  0  0  0  0  0  0  0  0  0  0
   -2.6925   -1.1093    0.0619 N   0  0  0  0  0  0  0  0  0  0  0  0
   -1.8524   -1.8191   -0.9261 C   0  0  1  0  0  0  0  0  0  0  0  0
   -1.7975   -1.0445   -2.2461 C   0  0  0  0  0  0  0  0  0  0  0  0
   -0.3420   -0.6755   -2.3811 C   0  0  2  0  0  0  0  0  0  0  0  0
    0.1168   -0.7522   -3.7097 O   0  0  0  0  0  0  0  0  0  0  0  0
    0.3515   -1.6753   -1.4594 C   0  0  1  0  0  0  0  0  0  0  0  0
    1.6630   -1.1308   -0.8824 C   0  0  0  0  0  0  0  0  0  0  0  0
    1.3960   -0.0322   -0.0416 O   0  0  0  0  0  0  0  0  0  0  0  0
    2.8693    0.5254    0.6098 P   0  0  0  0  0  5  0  0  0  0  0  0
    2.5418    1.8996    1.5435 O   0  0  0  0  0  0  0  0  0  0  0  0
    3.4645   -0.5485    1.4947 O   0  0  0  0  0  0  0  0  0  0  0  0
    3.9406    0.9035   -0.6598 O   0  0  0  0  0  0  0  0  0  0  0  0
    5.2861    1.6959    0.0164 P   0  0  0  0  0  5  0  0  0  0  0  0
    4.8328    3.2268    0.5808 O   0  0  0  0  0  0  0  0  0  0  0  0
    5.9463    0.7875    1.2849 O   0  0  0  0  0  0  0  0  0  0  0  0
    6.3345    1.8640   -1.0598 O   0  0  0  0  0  0  0  0  0  0  0  0
   -0.5424   -1.9909   -0.4188 O   0  0  0  0  0  0  0  0  0  0  0  0
   -3.9982   -1.4756    0.2754 C   0  0  0  0  0  0  0  0  0  0  0  0
   -4.5061   -2.4437   -0.3550 O   0  0  0  0  0  0  0  0  0  0  0  0
   -4.7661   -0.7928    1.1681 N   0  0  0  0  0  0  0  0  0  0  0  0
   -4.2735    0.2690    1.8572 C   0  0  0  0  0  0  0  0  0  0  0  0
   -5.0154    0.8842    2.6709 O   0  0  0  0  0  0  0  0  0  0  0  0
   -1.2767    1.9133    2.2727 H   0  0  0  0  0  0  0  0  0  0  0  0
   -2.8141    2.7997    1.9392 H   0  0  0  0  0  0  0  0  0  0  0  0
   -2.6292    1.8231    3.4517 H   0  0  0  0  0  0  0  0  0  0  0  0
   -1.1666    0.2987    0.5308 H   0  0  0  0  0  0  0  0  0  0  0  0
   -2.2573   -2.8367   -1.1239 H   0  0  0  0  0  0  0  0  0  0  0  0
   -2.1295   -1.7012   -3.0806 H   0  0  0  0  0  0  0  0  0  0  0  0
   -2.4378   -0.1346   -2.2352 H   0  0  0  0  0  0  0  0  0  0  0  0
   -0.2019    0.3644   -2.0108 H   0  0  0  0  0  0  0  0  0  0  0  0
   -0.0151   -1.6821   -4.0320 H   0  0  0  0  0  0  0  0  0  0  0  0
    0.5798   -2.6136   -2.0148 H   0  0  0  0  0  0  0  0  0  0  0  0
    2.1493   -1.9537   -0.3106 H   0  0  0  0  0  0  0  0  0  0  0  0
    2.3229   -0.8346   -1.7292 H   0  0  0  0  0  0  0  0  0  0  0  0
    1.8300    1.6151    2.1708 H   0  0  0  0  0  0  0  0  0  0  0  0
    5.6595    3.6105    0.9681 H   0  0  0  0  0  0  0  0  0  0  0  0
    6.7015    1.3322    1.6222 H   0  0  0  0  0  0  0  0  0  0  0  0
   -5.7582   -1.0868    1.3214 H   0  0  0  0  0  0  0  0  0  0  0  0
  1  2  1  0
  2  3  2  0
  3  4  1  0
  4  5  1  0
  5  6  1  0
  6  7  1  0
  7  8  1  0
  7  9  1  0
  9 10  1  0
 10 11  1  0
 11 12  1  0
 12 13  1  0
 12 14  2  0
 12 15  1  0
 15 16  1  0
 16 17  1  0
 16 18  1  0
 16 19  2  0
  9 20  1  0
  4 21  1  0
 21 22  2  0
 21 23  1  0
 23 24  1  0
 24 25  2  0
 24  2  1  0
 20  5  1  0
  1 26  1  0
  1 27  1  0
  1 28  1  0
  3 29  1  0
  5 30  1  6
  6 31  1  0
  6 32  1  0
  7 33  1  1
  8 34  1  0
  9 35  1  6
 10 36  1  0
 10 37  1  0
 13 38  1  0
 17 39  1  0
 18 40  1  0
 23 41  1  0
M  END
$$$$
