
     RDKit          3D

 22 23  0  0  0  0  0  0  0  0999 V2000
    3.9321   -0.7497    0.8034 N   0  0  0  0  0  0  0  0  0  0  0  0
    2.5697   -0.2305   -0.1252 S   0  0  0  0  0  6  0  0  0  0  0  0
    1.9538   -1.4184   -0.8094 O   0  0  0  0  0  0  0  0  0  0  0  0
    3.0179    0.7640   -1.1595 O   0  0  0  0  0  0  0  0  0  0  0  0
    1.3741    0.5276    0.9591 C   0  0  0  0  0  0  0  0  0  0  0  0
    0.1911    1.0033    0.1771 C   0  0  0  0  0  0  0  0  0  0  0  0
    0.0814    2.2405   -0.3639 N   0  0  0  0  0  0  0  0  0  0  0  0
   -1.0472    2.2827   -1.0232 O   0  0  0  0  0  0  0  0  0  0  0  0
   -1.6637    1.1291   -0.9406 C   0  0  0  0  0  0  0  0  0  0  0  0
   -2.8796    0.7497   -1.5020 C   0  0  0  0  0  0  0  0  0  0  0  0
   -3.3206   -0.5681   -1.2715 C   0  0  0  0  0  0  0  0  0  0  0  0
   -2.5422   -1.4599   -0.4961 C   0  0  0  0  0  0  0  0  0  0  0  0
   -1.3168   -1.0417    0.0576 C   0  0  0  0  0  0  0  0  0  0  0  0
   -0.9162    0.2700   -0.1889 C   0  0  0  0  0  0  0  0  0  0  0  0
    4.3603    0.1061    1.2223 H   0  0  0  0  0  0  0  0  0  0  0  0
    4.6307   -1.1376    0.1305 H   0  0  0  0  0  0  0  0  0  0  0  0
    1.0536   -0.2086    1.7257 H   0  0  0  0  0  0  0  0  0  0  0  0
    1.8477    1.3878    1.4772 H   0  0  0  0  0  0  0  0  0  0  0  0
   -3.4628    1.4408   -2.0963 H   0  0  0  0  0  0  0  0  0  0  0  0
   -4.2604   -0.9011   -1.6921 H   0  0  0  0  0  0  0  0  0  0  0  0
   -2.8904   -2.4706   -0.3278 H   0  0  0  0  0  0  0  0  0  0  0  0
   -0.7125   -1.7155    0.6508 H   0  0  0  0  0  0  0  0  0  0  0  0
  1  2  1  0
  2  3  2  0
  2  4  2  0
  2  5  1  0
  5  6  1  0
  6  7  2  0
  7  8  1  0
  8  9  1  0
  9 10  2  0
 10 11  1  0
 11 12  2  0
 12 13  1  0
 13 14  2  0
 14  6  1  0
 14  9  1  0
  1 15  1  0
  1 16  1  0
  5 17  1  0
  5 18  1  0
 10 19  1  0
 11 20  1  0
 12 21  1  0
 13 22  1  0
M  END
$$$$
