
     RDKit          3D

 44 46  0  0  0  0  0  0  0  0999 V2000
   -5.7763    1.4102   -0.4828 C   0  0  0  0  0  0  0  0  0  0  0  0
   -4.5682    1.5681    0.4449 C   0  0  0  0  0  0  0  0  0  0  0  0
   -4.9725    1.3871    1.9108 C   0  0  0  0  0  0  0  0  0  0  0  0
   -3.4837    0.5944    0.0716 C   0  0  0  0  0  0  0  0  0  0  0  0
   -2.2451    0.9941   -0.3333 N   0  0  0  0  0  0  0  0  0  0  0  0
   -1.6220   -0.1765   -0.5540 C   0  0  0  0  0  0  0  0  0  0  0  0
   -0.3245   -0.4144   -0.9804 C   0  0  0  0  0  0  0  0  0  0  0  0
    0.5437    0.6478   -1.2535 O   0  0  0  0  0  0  0  0  0  0  0  0
    1.9139    0.4716   -1.6114 C   0  0  0  0  0  0  0  0  0  0  0  0
    2.7614    0.0768   -0.3874 C   0  0  0  0  0  0  0  0  0  0  0  0
    4.2235   -0.1705   -0.8088 C   0  0  0  0  0  0  0  0  0  0  0  0
    5.0917   -0.5418    0.4000 C   0  0  0  0  0  0  0  0  0  0  0  0
    5.0176    0.5403    1.4833 C   0  0  0  0  0  0  0  0  0  0  0  0
    3.5667    0.7911    1.9100 C   0  0  0  0  0  0  0  0  0  0  0  0
    2.6944    1.1646    0.7049 C   0  0  0  0  0  0  0  0  0  0  0  0
    0.0645   -1.7188   -1.1228 N   0  0  0  0  0  0  0  0  0  0  0  0
   -0.7922   -2.7567   -0.8511 C   0  0  0  0  0  0  0  0  0  0  0  0
   -0.3489   -4.1021   -1.0088 N   0  0  0  0  0  0  0  0  0  0  0  0
   -2.0693   -2.5046   -0.4283 N   0  0  0  0  0  0  0  0  0  0  0  0
   -2.4495   -1.2121   -0.2918 C   0  0  0  0  0  0  0  0  0  0  0  0
   -3.6397   -0.7563    0.1076 N   0  0  0  0  0  0  0  0  0  0  0  0
   -6.2313    0.4023   -0.3740 H   0  0  0  0  0  0  0  0  0  0  0  0
   -5.4660    1.5519   -1.5403 H   0  0  0  0  0  0  0  0  0  0  0  0
   -6.5444    2.1756   -0.2411 H   0  0  0  0  0  0  0  0  0  0  0  0
   -4.1747    2.6015    0.3227 H   0  0  0  0  0  0  0  0  0  0  0  0
   -5.4058    0.3781    2.0813 H   0  0  0  0  0  0  0  0  0  0  0  0
   -5.7270    2.1514    2.1948 H   0  0  0  0  0  0  0  0  0  0  0  0
   -4.0861    1.5131    2.5690 H   0  0  0  0  0  0  0  0  0  0  0  0
    1.9968   -0.3007   -2.4076 H   0  0  0  0  0  0  0  0  0  0  0  0
    2.2921    1.4278   -2.0326 H   0  0  0  0  0  0  0  0  0  0  0  0
    2.3561   -0.8710    0.0311 H   0  0  0  0  0  0  0  0  0  0  0  0
    4.2644   -1.0015   -1.5464 H   0  0  0  0  0  0  0  0  0  0  0  0
    4.6403    0.7400   -1.2943 H   0  0  0  0  0  0  0  0  0  0  0  0
    6.1467   -0.6598    0.0715 H   0  0  0  0  0  0  0  0  0  0  0  0
    4.7527   -1.5147    0.8192 H   0  0  0  0  0  0  0  0  0  0  0  0
    5.6089    0.2161    2.3666 H   0  0  0  0  0  0  0  0  0  0  0  0
    5.4633    1.4846    1.1000 H   0  0  0  0  0  0  0  0  0  0  0  0
    3.1579   -0.1206    2.3989 H   0  0  0  0  0  0  0  0  0  0  0  0
    3.5408    1.6179    2.6520 H   0  0  0  0  0  0  0  0  0  0  0  0
    3.0349    2.1406    0.2930 H   0  0  0  0  0  0  0  0  0  0  0  0
    1.6454    1.2861    1.0521 H   0  0  0  0  0  0  0  0  0  0  0  0
    0.6243   -4.3033   -1.3292 H   0  0  0  0  0  0  0  0  0  0  0  0
   -0.9927   -4.8983   -0.8044 H   0  0  0  0  0  0  0  0  0  0  0  0
   -4.4820   -1.3092    0.3819 H   0  0  0  0  0  0  0  0  0  0  0  0
  1  2  1  0
  2  3  1  0
  2  4  1  0
  4  5  2  0
  5  6  1  0
  6  7  2  0
  7  8  1  0
  8  9  1  0
  9 10  1  0
 10 11  1  0
 11 12  1  0
 12 13  1  0
 13 14  1  0
 14 15  1  0
  7 16  1  0
 16 17  2  0
 17 18  1  0
 17 19  1  0
 19 20  2  0
 20 21  1  0
 21  4  1  0
 20  6  1  0
 15 10  1  0
  1 22  1  0
  1 23  1  0
  1 24  1  0
  2 25  1  0
  3 26  1  0
  3 27  1  0
  3 28  1  0
  9 29  1  0
  9 30  1  0
 10 31  1  0
 11 32  1  0
 11 33  1  0
 12 34  1  0
 12 35  1  0
 13 36  1  0
 13 37  1  0
 14 38  1  0
 14 39  1  0
 15 40  1  0
 15 41  1  0
 18 42  1  0
 18 43  1  0
 21 44  1  0
M  END
$$$$
