
     RDKit          3D

 50 53  0  0  0  0  0  0  0  0999 V2000
   -5.7777   -0.3502   -1.5094 C   0  0  2  0  0  0  0  0  0  0  0  0
   -6.3352    0.6786   -2.2893 O   0  0  0  0  0  0  0  0  0  0  0  0
   -6.7150   -0.7045   -0.3407 C   0  0  0  0  0  0  0  0  0  0  0  0
   -6.8579    0.3857    0.5285 O   0  0  0  0  0  0  0  0  0  0  0  0
   -4.3575    0.0336   -1.0414 C   0  0  0  0  0  0  0  0  0  0  0  0
   -3.6408   -1.1153   -0.4796 N   0  0  0  0  0  0  0  0  0  0  0  0
   -2.3185   -1.0218    0.0840 C   0  0  0  0  0  0  0  0  0  0  0  0
   -1.7279   -2.1677    0.6392 C   0  0  0  0  0  0  0  0  0  0  0  0
   -0.4489   -2.1079    1.1959 C   0  0  0  0  0  0  0  0  0  0  0  0
    0.2581   -0.9050    1.2018 C   0  0  0  0  0  0  0  0  0  0  0  0
   -0.3064    0.2510    0.6391 C   0  0  0  0  0  0  0  0  0  0  0  0
   -1.5977    0.1892    0.0903 C   0  0  0  0  0  0  0  0  0  0  0  0
    0.4364    1.5317    0.6431 C   0  0  0  0  0  0  0  0  0  0  0  0
    1.7300    1.7182    0.3421 C   0  0  0  0  0  0  0  0  0  0  0  0
    2.0199    3.1463    0.5026 C   0  0  0  0  0  0  0  0  0  0  0  0
    3.1160    3.7060    0.2369 O   0  0  0  0  0  0  0  0  0  0  0  0
    0.8677    3.8507    0.9362 N   0  0  0  0  0  0  0  0  0  0  0  0
   -0.1203    2.8363    1.0169 C   0  0  0  0  0  0  0  0  0  0  0  0
   -1.3055    3.0485    1.3853 O   0  0  0  0  0  0  0  0  0  0  0  0
    2.6651    0.7100   -0.1939 C   0  0  0  0  0  0  0  0  0  0  0  0
    2.3825   -0.2464   -1.1659 C   0  0  0  0  0  0  0  0  0  0  0  0
    3.4838   -0.9892   -1.4242 N   0  0  0  0  0  0  0  0  0  0  0  0
    3.5719   -2.1066   -2.3590 C   0  0  0  0  0  0  0  0  0  0  0  0
    4.4588   -0.5197   -0.6207 C   0  0  0  0  0  0  0  0  0  0  0  0
    5.7707   -0.9855   -0.5011 C   0  0  0  0  0  0  0  0  0  0  0  0
    6.6106   -0.3572    0.4353 C   0  0  0  0  0  0  0  0  0  0  0  0
    6.1277    0.7038    1.2319 C   0  0  0  0  0  0  0  0  0  0  0  0
    6.9446    1.2891    2.1418 F   0  0  0  0  0  0  0  0  0  0  0  0
    4.8011    1.1504    1.0949 C   0  0  0  0  0  0  0  0  0  0  0  0
    3.9941    0.5227    0.1442 C   0  0  0  0  0  0  0  0  0  0  0  0
   -5.6945   -1.2471   -2.1614 H   0  0  0  0  0  0  0  0  0  0  0  0
   -6.3458    1.5047   -1.7383 H   0  0  0  0  0  0  0  0  0  0  0  0
   -7.7105   -0.9859   -0.7513 H   0  0  0  0  0  0  0  0  0  0  0  0
   -6.3140   -1.5792    0.2172 H   0  0  0  0  0  0  0  0  0  0  0  0
   -7.4716    0.0856    1.2483 H   0  0  0  0  0  0  0  0  0  0  0  0
   -3.7873    0.4172   -1.9152 H   0  0  0  0  0  0  0  0  0  0  0  0
   -4.4191    0.8428   -0.2817 H   0  0  0  0  0  0  0  0  0  0  0  0
   -4.0997   -2.0547   -0.4941 H   0  0  0  0  0  0  0  0  0  0  0  0
   -2.2622   -3.1094    0.6449 H   0  0  0  0  0  0  0  0  0  0  0  0
   -0.0063   -2.9959    1.6283 H   0  0  0  0  0  0  0  0  0  0  0  0
    1.2415   -0.8745    1.6541 H   0  0  0  0  0  0  0  0  0  0  0  0
   -2.0238    1.0819   -0.3471 H   0  0  0  0  0  0  0  0  0  0  0  0
    0.7627    4.8736    1.1161 H   0  0  0  0  0  0  0  0  0  0  0  0
    1.4274   -0.3835   -1.6575 H   0  0  0  0  0  0  0  0  0  0  0  0
    4.4051   -1.9344   -3.0723 H   0  0  0  0  0  0  0  0  0  0  0  0
    2.6272   -2.2091   -2.9345 H   0  0  0  0  0  0  0  0  0  0  0  0
    3.7550   -3.0475   -1.7989 H   0  0  0  0  0  0  0  0  0  0  0  0
    6.1340   -1.8080   -1.1031 H   0  0  0  0  0  0  0  0  0  0  0  0
    7.6318   -0.6962    0.5513 H   0  0  0  0  0  0  0  0  0  0  0  0
    4.4204    1.9448    1.7224 H   0  0  0  0  0  0  0  0  0  0  0  0
  1  2  1  0
  1  3  1  0
  3  4  1  0
  1  5  1  0
  5  6  1  0
  6  7  1  0
  7  8  2  0
  8  9  1  0
  9 10  2  0
 10 11  1  0
 11 12  2  0
 11 13  1  0
 13 14  2  0
 14 15  1  0
 15 16  2  0
 15 17  1  0
 17 18  1  0
 18 19  2  0
 14 20  1  0
 20 21  2  0
 21 22  1  0
 22 23  1  0
 22 24  1  0
 24 25  2  0
 25 26  1  0
 26 27  2  0
 27 28  1  0
 27 29  1  0
 29 30  2  0
 12  7  1  0
 18 13  1  0
 30 20  1  0
 30 24  1  0
  1 31  1  6
  2 32  1  0
  3 33  1  0
  3 34  1  0
  4 35  1  0
  5 36  1  0
  5 37  1  0
  6 38  1  0
  8 39  1  0
  9 40  1  0
 10 41  1  0
 12 42  1  0
 17 43  1  0
 21 44  1  0
 23 45  1  0
 23 46  1  0
 23 47  1  0
 25 48  1  0
 26 49  1  0
 29 50  1  0
M  END
$$$$
