
     RDKit          3D

146149  0  0  0  0  0  0  0  0999 V2000
   -0.3726    0.6593    4.7321 C   0  0  0  0  0  0  0  0  0  0  0  0
    0.9221   -0.1581    4.7648 C   0  0  0  0  0  0  0  0  0  0  0  0
    2.0812    0.4275    3.9130 C   0  0  2  0  0  0  0  0  0  0  0  0
    2.6161    1.7292    4.5398 C   0  0  0  0  0  0  0  0  0  0  0  0
    1.7002    0.6345    2.4176 C   0  0  2  0  0  0  0  0  0  0  0  0
    1.1775   -0.6004    1.8243 N   0  0  0  0  0  0  0  0  0  0  0  0
    0.4416   -0.5916    0.5929 C   0  0  0  0  0  0  0  0  0  0  0  0
    0.3301    0.4770   -0.0679 O   0  0  0  0  0  0  0  0  0  0  0  0
   -0.1591   -1.8695    0.0627 C   0  0  2  0  0  0  0  0  0  0  0  0
    0.9149   -2.7661   -0.5929 C   0  0  0  0  0  0  0  0  0  0  0  0
    1.5998   -2.1312   -1.7833 C   0  0  0  0  0  0  0  0  0  0  0  0
    2.6820   -1.2554   -1.5967 C   0  0  0  0  0  0  0  0  0  0  0  0
    3.3372   -0.6952   -2.6970 C   0  0  0  0  0  0  0  0  0  0  0  0
    2.9054   -0.9829   -3.9943 C   0  0  0  0  0  0  0  0  0  0  0  0
    3.5592   -0.4059   -5.0805 O   0  0  0  0  0  0  0  0  0  0  0  0
    1.8219   -1.8491   -4.1893 C   0  0  0  0  0  0  0  0  0  0  0  0
    1.1777   -2.4265   -3.0911 C   0  0  0  0  0  0  0  0  0  0  0  0
   -1.2645   -1.5863   -0.8625 N   0  0  0  0  0  0  0  0  0  0  0  0
   -2.4442   -0.8793   -0.4522 C   0  0  0  0  0  0  0  0  0  0  0  0
   -2.6213   -0.5957    0.7648 O   0  0  0  0  0  0  0  0  0  0  0  0
   -3.4522   -0.4287   -1.4834 C   0  0  1  0  0  0  0  0  0  0  0  0
   -4.8076   -0.4654   -0.9194 N   0  0  0  0  0  0  0  0  0  0  0  0
   -5.4539   -1.6990   -0.5709 C   0  0  0  0  0  0  0  0  0  0  0  0
   -4.8912   -2.8002   -0.8226 O   0  0  0  0  0  0  0  0  0  0  0  0
   -6.8381   -1.6780    0.0217 C   0  0  2  0  0  0  0  0  0  0  0  0
   -7.0116   -2.7800    1.0883 C   0  0  0  0  0  0  0  0  0  0  0  0
   -8.4116   -2.8044    1.7342 C   0  0  0  0  0  0  0  0  0  0  0  0
   -8.7722   -1.5272    2.5026 C   0  0  0  0  0  0  0  0  0  0  0  0
   -7.7632   -1.2403    3.5192 N   0  0  0  0  0  0  0  0  0  0  0  0
   -7.7774   -0.2211    4.3283 C   0  0  0  0  0  0  0  0  0  0  0  0
   -6.7142   -0.0688    5.2683 N   0  0  0  0  0  0  0  0  0  0  0  0
   -8.8311    0.7507    4.2968 N   0  0  0  0  0  0  0  0  0  0  0  0
   -7.8176   -1.8417   -1.0543 N   0  0  0  0  0  0  0  0  0  0  0  0
   -8.4536   -0.7253   -1.6947 C   0  0  0  0  0  0  0  0  0  0  0  0
   -8.3044    0.4406   -1.2360 O   0  0  0  0  0  0  0  0  0  0  0  0
   -9.2750   -0.9360   -2.9461 C   0  0  1  0  0  0  0  0  0  0  0  0
  -10.6117   -0.3567   -2.7940 N   0  0  0  0  0  0  0  0  0  0  0  0
   -8.5785   -0.3273   -4.1751 C   0  0  0  0  0  0  0  0  0  0  0  0
   -7.2686   -0.9996   -4.4561 C   0  0  0  0  0  0  0  0  0  0  0  0
   -6.0836   -0.4236   -4.0094 O   0  0  0  0  0  0  0  0  0  0  0  0
   -7.2424   -2.1018   -5.0662 O   0  0  0  0  0  0  0  0  0  0  0  0
   -3.1218    0.9808   -2.0563 C   0  0  0  0  0  0  0  0  0  0  0  0
   -2.9475    2.0557   -0.9685 C   0  0  0  0  0  0  0  0  0  0  0  0
   -1.8853    0.9459   -2.9679 C   0  0  0  0  0  0  0  0  0  0  0  0
    2.8757    1.0969    1.5950 C   0  0  0  0  0  0  0  0  0  0  0  0
    3.9710    0.4770    1.6659 O   0  0  0  0  0  0  0  0  0  0  0  0
    2.7223    2.1906    0.6791 N   0  0  0  0  0  0  0  0  0  0  0  0
    3.6652    2.4378   -0.4165 C   0  0  1  0  0  0  0  0  0  0  0  0
    2.9152    2.6982   -1.7385 C   0  0  0  0  0  0  0  0  0  0  0  0
    2.0452    3.9222   -1.7080 C   0  0  0  0  0  0  0  0  0  0  0  0
    0.6948    3.9616   -1.4417 C   0  0  0  0  0  0  0  0  0  0  0  0
    0.2733    5.2409   -1.4901 N   0  0  0  0  0  0  0  0  0  0  0  0
    1.3852    5.9487   -1.7858 C   0  0  0  0  0  0  0  0  0  0  0  0
    2.4773    5.1740   -1.9241 N   0  0  0  0  0  0  0  0  0  0  0  0
    4.5965    3.5756   -0.0645 C   0  0  0  0  0  0  0  0  0  0  0  0
    4.1519    4.5406    0.6162 O   0  0  0  0  0  0  0  0  0  0  0  0
    5.9588    3.6146   -0.5358 N   0  0  0  0  0  0  0  0  0  0  0  0
    6.7882    4.8024   -0.4117 C   0  0  0  0  0  0  0  0  0  0  0  0
    8.1640    4.4060   -0.9323 C   0  0  0  0  0  0  0  0  0  0  0  0
    7.9536    3.1182   -1.7233 C   0  0  0  0  0  0  0  0  0  0  0  0
    6.6560    2.5120   -1.1888 C   0  0  1  0  0  0  0  0  0  0  0  0
    6.9412    1.4114   -0.1984 C   0  0  0  0  0  0  0  0  0  0  0  0
    7.3108    1.7024    0.9725 O   0  0  0  0  0  0  0  0  0  0  0  0
    6.8120    0.0381   -0.5924 N   0  0  0  0  0  0  0  0  0  0  0  0
    6.8387   -1.0522    0.3874 C   0  0  1  0  0  0  0  0  0  0  0  0
    6.1699   -2.3139   -0.1916 C   0  0  0  0  0  0  0  0  0  0  0  0
    5.7786   -3.2796    0.8973 C   0  0  0  0  0  0  0  0  0  0  0  0
    6.6382   -4.3280    1.2638 C   0  0  0  0  0  0  0  0  0  0  0  0
    6.2821   -5.2009    2.2969 C   0  0  0  0  0  0  0  0  0  0  0  0
    5.0714   -5.0288    2.9744 C   0  0  0  0  0  0  0  0  0  0  0  0
    4.2160   -3.9810    2.6228 C   0  0  0  0  0  0  0  0  0  0  0  0
    4.5685   -3.1064    1.5915 C   0  0  0  0  0  0  0  0  0  0  0  0
    8.2551   -1.3409    0.7962 C   0  0  0  0  0  0  0  0  0  0  0  0
    8.5658   -1.5028    2.1426 O   0  0  0  0  0  0  0  0  0  0  0  0
    9.1559   -1.4687   -0.0765 O   0  0  0  0  0  0  0  0  0  0  0  0
   -1.1055    0.2097    5.4347 H   0  0  0  0  0  0  0  0  0  0  0  0
   -0.1922    1.7072    5.0471 H   0  0  0  0  0  0  0  0  0  0  0  0
   -0.8235    0.6443    3.7182 H   0  0  0  0  0  0  0  0  0  0  0  0
    1.2561   -0.2463    5.8217 H   0  0  0  0  0  0  0  0  0  0  0  0
    0.6922   -1.1913    4.4295 H   0  0  0  0  0  0  0  0  0  0  0  0
    2.9079   -0.3170    3.9586 H   0  0  0  0  0  0  0  0  0  0  0  0
    2.8099    1.5891    5.6245 H   0  0  0  0  0  0  0  0  0  0  0  0
    1.8950    2.5624    4.4062 H   0  0  0  0  0  0  0  0  0  0  0  0
    3.5767    2.0206    4.0652 H   0  0  0  0  0  0  0  0  0  0  0  0
    0.9092    1.4144    2.3724 H   0  0  0  0  0  0  0  0  0  0  0  0
    1.4091   -1.5235    2.2560 H   0  0  0  0  0  0  0  0  0  0  0  0
   -0.5733   -2.4347    0.9266 H   0  0  0  0  0  0  0  0  0  0  0  0
    1.6807   -3.0351    0.1673 H   0  0  0  0  0  0  0  0  0  0  0  0
    0.4407   -3.7242   -0.8995 H   0  0  0  0  0  0  0  0  0  0  0  0
    3.0241   -1.0124   -0.6001 H   0  0  0  0  0  0  0  0  0  0  0  0
    4.1786   -0.0326   -2.5422 H   0  0  0  0  0  0  0  0  0  0  0  0
    3.2702   -0.5943   -6.0332 H   0  0  0  0  0  0  0  0  0  0  0  0
    1.4834   -2.0818   -5.1909 H   0  0  0  0  0  0  0  0  0  0  0  0
    0.3539   -3.1080   -3.2622 H   0  0  0  0  0  0  0  0  0  0  0  0
   -1.2087   -1.9038   -1.8550 H   0  0  0  0  0  0  0  0  0  0  0  0
   -3.4286   -1.1479   -2.3320 H   0  0  0  0  0  0  0  0  0  0  0  0
   -5.3529    0.4199   -0.8171 H   0  0  0  0  0  0  0  0  0  0  0  0
   -6.9745   -0.6975    0.5243 H   0  0  0  0  0  0  0  0  0  0  0  0
   -6.8376   -3.7747    0.6218 H   0  0  0  0  0  0  0  0  0  0  0  0
   -6.2411   -2.6523    1.8800 H   0  0  0  0  0  0  0  0  0  0  0  0
   -9.1813   -2.9856    0.9532 H   0  0  0  0  0  0  0  0  0  0  0  0
   -8.4553   -3.6631    2.4392 H   0  0  0  0  0  0  0  0  0  0  0  0
   -8.8641   -0.6723    1.7996 H   0  0  0  0  0  0  0  0  0  0  0  0
   -9.7579   -1.6787    2.9940 H   0  0  0  0  0  0  0  0  0  0  0  0
   -6.7010    0.7398    5.9284 H   0  0  0  0  0  0  0  0  0  0  0  0
   -5.9353   -0.7636    5.3056 H   0  0  0  0  0  0  0  0  0  0  0  0
   -9.6356    0.6829    3.6360 H   0  0  0  0  0  0  0  0  0  0  0  0
   -8.8112    1.5604    4.9553 H   0  0  0  0  0  0  0  0  0  0  0  0
   -7.9313   -2.7916   -1.4759 H   0  0  0  0  0  0  0  0  0  0  0  0
   -9.3995   -2.0272   -3.1258 H   0  0  0  0  0  0  0  0  0  0  0  0
  -11.0801   -0.8056   -1.9729 H   0  0  0  0  0  0  0  0  0  0  0  0
  -10.5315    0.6664   -2.5890 H   0  0  0  0  0  0  0  0  0  0  0  0
   -8.4094    0.7609   -4.0206 H   0  0  0  0  0  0  0  0  0  0  0  0
   -9.2365   -0.4409   -5.0642 H   0  0  0  0  0  0  0  0  0  0  0  0
   -5.1917   -0.8716   -4.1813 H   0  0  0  0  0  0  0  0  0  0  0  0
   -3.9789    1.2908   -2.6951 H   0  0  0  0  0  0  0  0  0  0  0  0
   -2.0485    1.8555   -0.3493 H   0  0  0  0  0  0  0  0  0  0  0  0
   -2.8283    3.0545   -1.4401 H   0  0  0  0  0  0  0  0  0  0  0  0
   -3.8348    2.0974   -0.3044 H   0  0  0  0  0  0  0  0  0  0  0  0
   -0.9706    0.6936   -2.3933 H   0  0  0  0  0  0  0  0  0  0  0  0
   -1.7356    1.9379   -3.4452 H   0  0  0  0  0  0  0  0  0  0  0  0
   -2.0208    0.1943   -3.7745 H   0  0  0  0  0  0  0  0  0  0  0  0
    1.9248    2.8495    0.8232 H   0  0  0  0  0  0  0  0  0  0  0  0
    4.2606    1.5179   -0.5782 H   0  0  0  0  0  0  0  0  0  0  0  0
    2.2802    1.8174   -1.9729 H   0  0  0  0  0  0  0  0  0  0  0  0
    3.6495    2.8009   -2.5664 H   0  0  0  0  0  0  0  0  0  0  0  0
    0.0568    3.1158   -1.2244 H   0  0  0  0  0  0  0  0  0  0  0  0
    1.3959    7.0246   -1.8987 H   0  0  0  0  0  0  0  0  0  0  0  0
    3.4486    5.4840   -2.1494 H   0  0  0  0  0  0  0  0  0  0  0  0
    6.3595    5.6210   -1.0297 H   0  0  0  0  0  0  0  0  0  0  0  0
    6.8509    5.1232    0.6509 H   0  0  0  0  0  0  0  0  0  0  0  0
    8.6034    5.2048   -1.5684 H   0  0  0  0  0  0  0  0  0  0  0  0
    8.8439    4.2056   -0.0751 H   0  0  0  0  0  0  0  0  0  0  0  0
    8.8266    2.4348   -1.6268 H   0  0  0  0  0  0  0  0  0  0  0  0
    7.8233    3.3716   -2.7987 H   0  0  0  0  0  0  0  0  0  0  0  0
    6.0509    2.1267   -2.0385 H   0  0  0  0  0  0  0  0  0  0  0  0
    6.6406   -0.1780   -1.6010 H   0  0  0  0  0  0  0  0  0  0  0  0
    6.2649   -0.7314    1.2844 H   0  0  0  0  0  0  0  0  0  0  0  0
    6.8410   -2.8068   -0.9297 H   0  0  0  0  0  0  0  0  0  0  0  0
    5.2560   -2.0238   -0.7494 H   0  0  0  0  0  0  0  0  0  0  0  0
    7.5828   -4.4669    0.7527 H   0  0  0  0  0  0  0  0  0  0  0  0
    6.9463   -6.0092    2.5744 H   0  0  0  0  0  0  0  0  0  0  0  0
    4.7983   -5.7047    3.7744 H   0  0  0  0  0  0  0  0  0  0  0  0
    3.2815   -3.8436    3.1516 H   0  0  0  0  0  0  0  0  0  0  0  0
    3.9015   -2.2933    1.3370 H   0  0  0  0  0  0  0  0  0  0  0  0
    9.5123   -1.7132    2.4355 H   0  0  0  0  0  0  0  0  0  0  0  0
  1  2  1  0
  2  3  1  0
  3  4  1  0
  3  5  1  0
  5  6  1  0
  6  7  1  0
  7  8  2  0
  7  9  1  0
  9 10  1  0
 10 11  1  0
 11 12  2  0
 12 13  1  0
 13 14  2  0
 14 15  1  0
 14 16  1  0
 16 17  2  0
  9 18  1  0
 18 19  1  0
 19 20  2  0
 19 21  1  0
 21 22  1  0
 22 23  1  0
 23 24  2  0
 23 25  1  0
 25 26  1  0
 26 27  1  0
 27 28  1  0
 28 29  1  0
 29 30  2  3
 30 31  1  0
 30 32  1  0
 25 33  1  0
 33 34  1  0
 34 35  2  0
 34 36  1  0
 36 37  1  0
 36 38  1  0
 38 39  1  0
 39 40  1  0
 39 41  2  0
 21 42  1  0
 42 43  1  0
 42 44  1  0
  5 45  1  0
 45 46  2  0
 45 47  1  0
 47 48  1  0
 48 49  1  0
 49 50  1  0
 50 51  2  0
 51 52  1  0
 52 53  2  0
 53 54  1  0
 48 55  1  0
 55 56  2  0
 55 57  1  0
 57 58  1  0
 58 59  1  0
 59 60  1  0
 60 61  1  0
 61 62  1  0
 62 63  2  0
 62 64  1  0
 64 65  1  0
 65 66  1  0
 66 67  1  0
 67 68  2  0
 68 69  1  0
 69 70  2  0
 70 71  1  0
 71 72  2  0
 65 73  1  0
 73 74  1  0
 73 75  2  0
 17 11  1  0
 54 50  1  0
 61 57  1  0
 72 67  1  0
  1 76  1  0
  1 77  1  0
  1 78  1  0
  2 79  1  0
  2 80  1  0
  3 81  1  6
  4 82  1  0
  4 83  1  0
  4 84  1  0
  5 85  1  1
  6 86  1  0
  9 87  1  1
 10 88  1  0
 10 89  1  0
 12 90  1  0
 13 91  1  0
 15 92  1  0
 16 93  1  0
 17 94  1  0
 18 95  1  0
 21 96  1  6
 22 97  1  0
 25 98  1  1
 26 99  1  0
 26100  1  0
 27101  1  0
 27102  1  0
 28103  1  0
 28104  1  0
 31105  1  0
 31106  1  0
 32107  1  0
 32108  1  0
 33109  1  0
 36110  1  6
 37111  1  0
 37112  1  0
 38113  1  0
 38114  1  0
 40115  1  0
 42116  1  0
 43117  1  0
 43118  1  0
 43119  1  0
 44120  1  0
 44121  1  0
 44122  1  0
 47123  1  0
 48124  1  6
 49125  1  0
 49126  1  0
 51127  1  0
 53128  1  0
 54129  1  0
 58130  1  0
 58131  1  0
 59132  1  0
 59133  1  0
 60134  1  0
 60135  1  0
 61136  1  6
 64137  1  0
 65138  1  1
 66139  1  0
 66140  1  0
 68141  1  0
 69142  1  0
 70143  1  0
 71144  1  0
 72145  1  0
 74146  1  0
M  END
$$$$
