
     RDKit          3D

 28 28  0  0  0  0  0  0  0  0999 V2000
   -2.1716   -0.5010    1.1765 C   0  0  0  0  0  0  0  0  0  0  0  0
   -1.7853    0.7308    0.3388 C   0  0  0  0  0  0  0  0  0  0  0  0
   -0.7798    0.4562   -0.7371 N   0  0  0  0  0  4  0  0  0  0  0  0
   -0.4235    1.7442   -1.3848 C   0  0  0  0  0  0  0  0  0  0  0  0
   -1.4186   -0.3883   -1.7848 C   0  0  0  0  0  0  0  0  0  0  0  0
    0.4552   -0.1357   -0.1786 C   0  0  0  0  0  0  0  0  0  0  0  0
    1.1532    0.5248    0.8667 C   0  0  0  0  0  0  0  0  0  0  0  0
    2.3279   -0.0087    1.4132 C   0  0  0  0  0  0  0  0  0  0  0  0
    2.9947    0.6507    2.4438 O   0  0  0  0  0  0  0  0  0  0  0  0
    2.8398   -1.2085    0.9242 C   0  0  0  0  0  0  0  0  0  0  0  0
    2.1887   -1.8734   -0.1113 C   0  0  0  0  0  0  0  0  0  0  0  0
    1.0170   -1.3491   -0.6629 C   0  0  0  0  0  0  0  0  0  0  0  0
   -2.7279   -1.2423    0.5684 H   0  0  0  0  0  0  0  0  0  0  0  0
   -1.2796   -0.9828    1.6271 H   0  0  0  0  0  0  0  0  0  0  0  0
   -2.8393   -0.1813    2.0042 H   0  0  0  0  0  0  0  0  0  0  0  0
   -1.4204    1.5134    1.0387 H   0  0  0  0  0  0  0  0  0  0  0  0
   -2.7198    1.1503   -0.0999 H   0  0  0  0  0  0  0  0  0  0  0  0
   -1.3102    2.2112   -1.8708 H   0  0  0  0  0  0  0  0  0  0  0  0
   -0.0313    2.4827   -0.6522 H   0  0  0  0  0  0  0  0  0  0  0  0
    0.3573    1.5950   -2.1650 H   0  0  0  0  0  0  0  0  0  0  0  0
   -2.3746    0.0592   -2.1390 H   0  0  0  0  0  0  0  0  0  0  0  0
   -1.6511   -1.4068   -1.4080 H   0  0  0  0  0  0  0  0  0  0  0  0
   -0.7618   -0.4903   -2.6781 H   0  0  0  0  0  0  0  0  0  0  0  0
    0.7936    1.4631    1.2638 H   0  0  0  0  0  0  0  0  0  0  0  0
    2.6516    1.5251    2.8239 H   0  0  0  0  0  0  0  0  0  0  0  0
    3.7473   -1.6236    1.3439 H   0  0  0  0  0  0  0  0  0  0  0  0
    2.5956   -2.8014   -0.4924 H   0  0  0  0  0  0  0  0  0  0  0  0
    0.5727   -1.9136   -1.4682 H   0  0  0  0  0  0  0  0  0  0  0  0
  1  2  1  0
  2  3  1  0
  3  4  1  0
  3  5  1  0
  3  6  1  0
  6  7  2  0
  7  8  1  0
  8  9  1  0
  8 10  2  0
 10 11  1  0
 11 12  2  0
 12  6  1  0
  1 13  1  0
  1 14  1  0
  1 15  1  0
  2 16  1  0
  2 17  1  0
  4 18  1  0
  4 19  1  0
  4 20  1  0
  5 21  1  0
  5 22  1  0
  5 23  1  0
  7 24  1  0
  9 25  1  0
 10 26  1  0
 11 27  1  0
 12 28  1  0
M  CHG  1   3   1
M  END
$$$$
