
     RDKit          3D

 24 24  0  0  0  0  0  0  0  0999 V2000
   -4.2910   -0.3268    0.1002 N   0  0  0  0  0  0  0  0  0  0  0  0
   -3.3786   -1.0864   -0.7476 C   0  0  0  0  0  0  0  0  0  0  0  0
   -1.9696   -0.6003   -0.5490 C   0  0  0  0  0  0  0  0  0  0  0  0
   -1.4944    0.5040   -1.2720 C   0  0  0  0  0  0  0  0  0  0  0  0
   -0.1960    0.9780   -1.0632 C   0  0  0  0  0  0  0  0  0  0  0  0
    0.6490    0.3543   -0.1332 C   0  0  0  0  0  0  0  0  0  0  0  0
    1.9721    0.8767    0.0789 N   0  0  0  0  0  0  0  0  0  0  0  0
    3.1086    0.0680    0.4280 C   0  0  0  0  0  0  0  0  0  0  0  0
    3.0553   -1.1870    0.3221 O   0  0  0  0  0  0  0  0  0  0  0  0
    4.3619    0.6938    0.8736 C   0  0  0  0  0  0  0  0  0  0  0  0
    5.4660   -0.1005    1.1681 O   0  0  0  0  0  0  0  0  0  0  0  0
    4.4420    1.9455    0.9951 O   0  0  0  0  0  0  0  0  0  0  0  0
    0.1582   -0.7289    0.6178 C   0  0  0  0  0  0  0  0  0  0  0  0
   -1.1407   -1.2024    0.4097 C   0  0  0  0  0  0  0  0  0  0  0  0
   -4.1095   -0.5925    1.0958 H   0  0  0  0  0  0  0  0  0  0  0  0
   -5.2641   -0.6413   -0.1180 H   0  0  0  0  0  0  0  0  0  0  0  0
   -3.4535   -2.1717   -0.5107 H   0  0  0  0  0  0  0  0  0  0  0  0
   -3.6720   -0.9585   -1.8128 H   0  0  0  0  0  0  0  0  0  0  0  0
   -2.1300    0.9993   -1.9957 H   0  0  0  0  0  0  0  0  0  0  0  0
    0.1557    1.8294   -1.6323 H   0  0  0  0  0  0  0  0  0  0  0  0
    2.1324    1.8902   -0.1203 H   0  0  0  0  0  0  0  0  0  0  0  0
    6.3369    0.3142    1.4780 H   0  0  0  0  0  0  0  0  0  0  0  0
    0.7648   -1.1916    1.3846 H   0  0  0  0  0  0  0  0  0  0  0  0
   -1.5035   -2.0328    1.0029 H   0  0  0  0  0  0  0  0  0  0  0  0
  1  2  1  0
  2  3  1  0
  3  4  2  0
  4  5  1  0
  5  6  2  0
  6  7  1  0
  7  8  1  0
  8  9  2  0
  8 10  1  0
 10 11  1  0
 10 12  2  0
  6 13  1  0
 13 14  2  0
 14  3  1  0
  1 15  1  0
  1 16  1  0
  2 17  1  0
  2 18  1  0
  4 19  1  0
  5 20  1  0
  7 21  1  0
 11 22  1  0
 13 23  1  0
 14 24  1  0
M  END
$$$$
