
     RDKit          3D

 72 74  0  0  0  0  0  0  0  0999 V2000
    0.5850   -1.7785    0.4441 C   0  0  0  0  0  0  0  0  0  0  0  0
   -0.5494   -2.6537    0.9580 C   0  0  0  0  0  0  0  0  0  0  0  0
   -2.0044   -1.6903    1.3483 S   0  0  0  0  0  6  0  0  0  0  0  0
   -1.7176   -0.8018    2.5274 O   0  0  0  0  0  0  0  0  0  0  0  0
   -3.1075   -2.6385    1.7238 O   0  0  0  0  0  0  0  0  0  0  0  0
   -2.5241   -0.7626   -0.0359 N   0  0  0  0  0  0  0  0  0  0  0  0
   -1.9244    0.5901   -0.0811 C   0  0  2  0  0  0  0  0  0  0  0  0
   -3.0165    1.6494    0.1412 C   0  0  0  0  0  0  0  0  0  0  0  0
   -3.5917    1.5670    1.5251 C   0  0  0  0  0  0  0  0  0  0  0  0
   -3.0800    2.1739    2.6682 C   0  0  0  0  0  0  0  0  0  0  0  0
   -3.7918    1.8050    3.7575 N   0  0  0  0  0  0  0  0  0  0  0  0
   -4.7402    0.9618    3.3138 C   0  0  0  0  0  0  0  0  0  0  0  0
   -5.6977    0.2923    4.0745 C   0  0  0  0  0  0  0  0  0  0  0  0
   -6.5799   -0.5756    3.4054 C   0  0  0  0  0  0  0  0  0  0  0  0
   -6.4840   -0.7557    2.0077 C   0  0  0  0  0  0  0  0  0  0  0  0
   -5.5065   -0.0684    1.2658 C   0  0  0  0  0  0  0  0  0  0  0  0
   -4.6490    0.7890    1.9562 C   0  0  0  0  0  0  0  0  0  0  0  0
   -1.2511    0.8485   -1.4102 C   0  0  0  0  0  0  0  0  0  0  0  0
   -1.8735    0.6181   -2.4836 O   0  0  0  0  0  0  0  0  0  0  0  0
    0.0819    1.3804   -1.4489 N   0  0  0  0  0  0  0  0  0  0  0  0
    0.8368    1.5191   -2.6968 C   0  0  1  0  0  0  0  0  0  0  0  0
    0.4028    2.8064   -3.4317 C   0  0  0  0  0  0  0  0  0  0  0  0
    1.0789    2.9905   -4.8003 C   0  0  0  0  0  0  0  0  0  0  0  0
    0.6671    1.9255   -5.7746 C   0  0  0  0  0  0  0  0  0  0  0  0
    1.5185    0.8084   -6.0306 N   0  0  0  0  0  0  0  0  0  0  0  0
   -0.4516    2.0024   -6.3489 O   0  0  0  0  0  0  0  0  0  0  0  0
    2.3136    1.5154   -2.3858 C   0  0  0  0  0  0  0  0  0  0  0  0
    2.8502    2.5450   -1.8917 O   0  0  0  0  0  0  0  0  0  0  0  0
    3.0885    0.3237   -2.5845 N   0  0  0  0  0  0  0  0  0  0  0  0
    4.4159    0.1461   -2.0006 C   0  0  0  0  0  0  0  0  0  0  0  0
    4.2946   -0.5273   -0.6615 C   0  0  0  0  0  0  0  0  0  0  0  0
    4.4909   -1.9111   -0.5416 C   0  0  0  0  0  0  0  0  0  0  0  0
    4.3283   -2.5434    0.6945 C   0  0  0  0  0  0  0  0  0  0  0  0
    3.9428   -1.8060    1.8269 C   0  0  0  0  0  0  0  0  0  0  0  0
    3.7459   -0.4194    1.7029 C   0  0  0  0  0  0  0  0  0  0  0  0
    3.9188    0.2132    0.4689 C   0  0  0  0  0  0  0  0  0  0  0  0
    3.7310   -2.4898    3.1261 C   0  0  0  0  0  0  0  0  0  0  0  0
    4.5852   -3.5665    3.5198 N   0  0  0  0  0  0  0  0  0  0  0  0
    2.7627   -2.1370    3.9137 N   0  0  0  0  0  0  0  0  0  0  0  0
    0.3139   -1.3270   -0.5310 H   0  0  0  0  0  0  0  0  0  0  0  0
    1.4871   -2.4044    0.2911 H   0  0  0  0  0  0  0  0  0  0  0  0
    0.8218   -0.9777    1.1757 H   0  0  0  0  0  0  0  0  0  0  0  0
   -0.8101   -3.4086    0.1863 H   0  0  0  0  0  0  0  0  0  0  0  0
   -0.2161   -3.1858    1.8741 H   0  0  0  0  0  0  0  0  0  0  0  0
   -2.2801   -1.3275   -0.8819 H   0  0  0  0  0  0  0  0  0  0  0  0
   -1.1544    0.7210    0.7094 H   0  0  0  0  0  0  0  0  0  0  0  0
   -3.8281    1.5256   -0.6084 H   0  0  0  0  0  0  0  0  0  0  0  0
   -2.5851    2.6653    0.0010 H   0  0  0  0  0  0  0  0  0  0  0  0
   -2.2211    2.8314    2.7022 H   0  0  0  0  0  0  0  0  0  0  0  0
   -3.6214    2.1001    4.7445 H   0  0  0  0  0  0  0  0  0  0  0  0
   -5.7579    0.4303    5.1463 H   0  0  0  0  0  0  0  0  0  0  0  0
   -7.3343   -1.1118    3.9661 H   0  0  0  0  0  0  0  0  0  0  0  0
   -7.1651   -1.4294    1.5043 H   0  0  0  0  0  0  0  0  0  0  0  0
   -5.4235   -0.2086    0.1961 H   0  0  0  0  0  0  0  0  0  0  0  0
    0.5295    1.6692   -0.5487 H   0  0  0  0  0  0  0  0  0  0  0  0
    0.6125    0.6433   -3.3437 H   0  0  0  0  0  0  0  0  0  0  0  0
    0.6339    3.6899   -2.7970 H   0  0  0  0  0  0  0  0  0  0  0  0
   -0.6994    2.7967   -3.5774 H   0  0  0  0  0  0  0  0  0  0  0  0
    2.1841    3.0021   -4.6890 H   0  0  0  0  0  0  0  0  0  0  0  0
    0.7853    3.9803   -5.2117 H   0  0  0  0  0  0  0  0  0  0  0  0
    1.2214    0.0619   -6.6973 H   0  0  0  0  0  0  0  0  0  0  0  0
    2.4415    0.7192   -5.5508 H   0  0  0  0  0  0  0  0  0  0  0  0
    2.6293   -0.5136   -3.0091 H   0  0  0  0  0  0  0  0  0  0  0  0
    4.9346    1.1232   -1.8922 H   0  0  0  0  0  0  0  0  0  0  0  0
    5.0355   -0.4674   -2.6900 H   0  0  0  0  0  0  0  0  0  0  0  0
    4.7608   -2.5038   -1.4069 H   0  0  0  0  0  0  0  0  0  0  0  0
    4.4674   -3.6153    0.7554 H   0  0  0  0  0  0  0  0  0  0  0  0
    3.4652    0.1782    2.5609 H   0  0  0  0  0  0  0  0  0  0  0  0
    3.7542    1.2806    0.3948 H   0  0  0  0  0  0  0  0  0  0  0  0
    5.4202   -3.8295    2.9511 H   0  0  0  0  0  0  0  0  0  0  0  0
    4.4122   -4.0768    4.4145 H   0  0  0  0  0  0  0  0  0  0  0  0
    2.0876   -1.3764    3.6758 H   0  0  0  0  0  0  0  0  0  0  0  0
  1  2  1  0
  2  3  1  0
  3  4  2  0
  3  5  2  0
  3  6  1  0
  6  7  1  0
  7  8  1  0
  8  9  1  0
  9 10  2  0
 10 11  1  0
 11 12  1  0
 12 13  2  0
 13 14  1  0
 14 15  2  0
 15 16  1  0
 16 17  2  0
  7 18  1  0
 18 19  2  0
 18 20  1  0
 20 21  1  0
 21 22  1  0
 22 23  1  0
 23 24  1  0
 24 25  1  0
 24 26  2  0
 21 27  1  0
 27 28  2  0
 27 29  1  0
 29 30  1  0
 30 31  1  0
 31 32  2  0
 32 33  1  0
 33 34  2  0
 34 35  1  0
 35 36  2  0
 34 37  1  0
 37 38  1  0
 37 39  2  3
 17  9  1  0
 36 31  1  0
 17 12  1  0
  1 40  1  0
  1 41  1  0
  1 42  1  0
  2 43  1  0
  2 44  1  0
  6 45  1  0
  7 46  1  1
  8 47  1  0
  8 48  1  0
 10 49  1  0
 11 50  1  0
 13 51  1  0
 14 52  1  0
 15 53  1  0
 16 54  1  0
 20 55  1  0
 21 56  1  6
 22 57  1  0
 22 58  1  0
 23 59  1  0
 23 60  1  0
 25 61  1  0
 25 62  1  0
 29 63  1  0
 30 64  1  0
 30 65  1  0
 32 66  1  0
 33 67  1  0
 35 68  1  0
 36 69  1  0
 38 70  1  0
 38 71  1  0
 39 72  1  0
M  END
$$$$
