
     RDKit          3D

 38 40  0  0  0  0  0  0  0  0999 V2000
    2.2039   -0.4455    1.4385 C   0  0  1  0  0  0  0  0  0  0  0  0
    2.2129   -2.0236    0.4766 S   0  0  0  0  0  0  0  0  0  0  0  0
    2.9941   -1.4043   -1.0675 C   0  0  0  0  0  0  0  0  0  0  0  0
    4.2718   -0.6383   -0.8125 C   0  0  0  0  0  0  0  0  0  0  0  0
    5.6956   -1.0913   -1.7488 Cl  0  0  0  0  0  0  0  0  0  0  0  0
    4.2508    0.3930    0.0540 C   0  0  0  0  0  0  0  0  0  0  0  0
    3.0726    0.5388    0.8372 N   0  0  0  0  0  0  0  0  0  0  0  0
    1.9378    1.4890    0.8263 C   0  0  0  0  0  0  0  0  0  0  0  0
    1.7795    2.6836    0.4632 O   0  0  0  0  0  0  0  0  0  0  0  0
    1.0397    0.4109    1.3572 C   0  0  1  0  0  0  0  0  0  0  0  0
    0.0486   -0.0056    0.3612 N   0  0  0  0  0  0  0  0  0  0  0  0
   -0.9970   -0.9353    0.6888 C   0  0  0  0  0  0  0  0  0  0  0  0
   -1.1116   -1.3542    1.8731 O   0  0  0  0  0  0  0  0  0  0  0  0
   -1.9949   -1.4007   -0.3443 C   0  0  2  0  0  0  0  0  0  0  0  0
   -1.3785   -1.5195   -1.6694 N   0  0  0  0  0  0  0  0  0  0  0  0
   -3.2175   -0.5007   -0.3768 C   0  0  0  0  0  0  0  0  0  0  0  0
   -3.0974    0.8858   -0.5963 C   0  0  0  0  0  0  0  0  0  0  0  0
   -4.2349    1.6977   -0.6355 C   0  0  0  0  0  0  0  0  0  0  0  0
   -5.5023    1.1374   -0.4622 C   0  0  0  0  0  0  0  0  0  0  0  0
   -5.6351   -0.2369   -0.2518 C   0  0  0  0  0  0  0  0  0  0  0  0
   -4.5009   -1.0536   -0.2116 C   0  0  0  0  0  0  0  0  0  0  0  0
    5.3591    1.3504    0.2647 C   0  0  0  0  0  0  0  0  0  0  0  0
    5.2637    2.2789    1.2971 O   0  0  0  0  0  0  0  0  0  0  0  0
    6.3766    1.3593   -0.4780 O   0  0  0  0  0  0  0  0  0  0  0  0
    2.5065   -0.6326    2.4927 H   0  0  0  0  0  0  0  0  0  0  0  0
    2.2718   -0.7424   -1.5906 H   0  0  0  0  0  0  0  0  0  0  0  0
    3.1949   -2.2721   -1.7298 H   0  0  0  0  0  0  0  0  0  0  0  0
    0.5905    0.6879    2.3362 H   0  0  0  0  0  0  0  0  0  0  0  0
    0.1036    0.3915   -0.6031 H   0  0  0  0  0  0  0  0  0  0  0  0
   -2.3065   -2.4248   -0.0349 H   0  0  0  0  0  0  0  0  0  0  0  0
   -1.2950   -0.5787   -2.1176 H   0  0  0  0  0  0  0  0  0  0  0  0
   -2.0187   -2.0799   -2.2782 H   0  0  0  0  0  0  0  0  0  0  0  0
   -2.1269    1.3412   -0.7385 H   0  0  0  0  0  0  0  0  0  0  0  0
   -4.1334    2.7623   -0.8022 H   0  0  0  0  0  0  0  0  0  0  0  0
   -6.3816    1.7676   -0.4935 H   0  0  0  0  0  0  0  0  0  0  0  0
   -6.6181   -0.6705   -0.1212 H   0  0  0  0  0  0  0  0  0  0  0  0
   -4.6263   -2.1172   -0.0513 H   0  0  0  0  0  0  0  0  0  0  0  0
    6.0023    2.9524    1.4614 H   0  0  0  0  0  0  0  0  0  0  0  0
  1  2  1  0
  2  3  1  0
  3  4  1  0
  4  5  1  0
  4  6  2  0
  6  7  1  0
  7  8  1  0
  8  9  2  0
  8 10  1  0
 10 11  1  0
 11 12  1  0
 12 13  2  0
 12 14  1  0
 14 15  1  0
 14 16  1  0
 16 17  2  0
 17 18  1  0
 18 19  2  0
 19 20  1  0
 20 21  2  0
  6 22  1  0
 22 23  1  0
 22 24  2  0
  7  1  1  0
 21 16  1  0
 10  1  1  0
  1 25  1  1
  3 26  1  0
  3 27  1  0
 10 28  1  1
 11 29  1  0
 14 30  1  1
 15 31  1  0
 15 32  1  0
 17 33  1  0
 18 34  1  0
 19 35  1  0
 20 36  1  0
 21 37  1  0
 23 38  1  0
M  END
$$$$
