
     RDKit          3D

 52 55  0  0  0  0  0  0  0  0999 V2000
   -1.0242    0.2471   -1.1768 C   0  0  2  0  0  0  0  0  0  0  0  0
   -1.7760    1.0769   -2.2117 C   0  0  0  0  0  0  0  0  0  0  0  0
   -3.2640    0.8771   -1.8684 C   0  0  0  0  0  0  0  0  0  0  0  0
   -3.3249    0.0465   -0.5518 C   0  0  2  0  0  0  0  0  0  0  0  0
   -3.4741   -1.3049   -0.9418 O   0  0  0  0  0  0  0  0  0  0  0  0
   -4.5055    0.4757    0.3365 C   0  0  0  0  0  0  0  0  0  0  0  0
   -5.2646   -0.5103    1.1798 C   0  0  0  0  0  0  0  0  0  0  0  0
   -4.8417    1.6507    0.3853 O   0  0  0  0  0  0  0  0  0  0  0  0
   -1.9111    0.2996    0.0807 C   0  0  2  0  0  0  0  0  0  0  0  0
   -1.8864    1.6979    0.7900 C   0  0  0  0  0  0  0  0  0  0  0  0
   -1.3884   -0.7761    1.0694 C   0  0  0  0  0  0  0  0  0  0  0  0
    0.1048   -0.5570    1.4151 C   0  0  0  0  0  0  0  0  0  0  0  0
    1.0035   -0.4561    0.1429 C   0  0  1  0  0  0  0  0  0  0  0  0
    0.4544    0.5859   -0.8819 C   0  0  1  0  0  0  0  0  0  0  0  0
    1.2866    0.5766   -2.1396 C   0  0  0  0  0  0  0  0  0  0  0  0
    2.5846    0.2489   -2.1489 C   0  0  0  0  0  0  0  0  0  0  0  0
    3.4337    0.3946   -3.6896 Cl  0  0  0  0  0  0  0  0  0  0  0  0
    3.2739   -0.2542   -0.9196 C   0  0  0  0  0  0  0  0  0  0  0  0
    4.5507   -0.6816   -0.9956 C   0  0  0  0  0  0  0  0  0  0  0  0
    5.2637   -1.2402    0.1628 C   0  0  0  0  0  0  0  0  0  0  0  0
    6.4708   -1.5792    0.0418 O   0  0  0  0  0  0  0  0  0  0  0  0
    4.5904   -1.3823    1.4903 C   0  0  0  0  0  0  0  0  0  0  0  0
    3.0648   -1.3822    1.3408 C   0  0  0  0  0  0  0  0  0  0  0  0
    2.5339   -0.2333    0.4267 C   0  0  2  0  0  0  0  0  0  0  0  0
    2.8029    1.1335    1.1090 C   0  0  0  0  0  0  0  0  0  0  0  0
   -1.0297   -0.7985   -1.5721 H   0  0  0  0  0  0  0  0  0  0  0  0
   -1.4956    2.1500   -2.1302 H   0  0  0  0  0  0  0  0  0  0  0  0
   -1.5596    0.7224   -3.2431 H   0  0  0  0  0  0  0  0  0  0  0  0
   -3.7387    1.8767   -1.7680 H   0  0  0  0  0  0  0  0  0  0  0  0
   -3.7854    0.3482   -2.6969 H   0  0  0  0  0  0  0  0  0  0  0  0
   -3.5228   -1.8758   -0.1344 H   0  0  0  0  0  0  0  0  0  0  0  0
   -6.0341    0.0077    1.7915 H   0  0  0  0  0  0  0  0  0  0  0  0
   -4.5679   -1.0336    1.8671 H   0  0  0  0  0  0  0  0  0  0  0  0
   -5.7762   -1.2498    0.5292 H   0  0  0  0  0  0  0  0  0  0  0  0
   -0.8809    2.0113    1.1228 H   0  0  0  0  0  0  0  0  0  0  0  0
   -2.2713    2.5043    0.1329 H   0  0  0  0  0  0  0  0  0  0  0  0
   -2.5145    1.6731    1.7054 H   0  0  0  0  0  0  0  0  0  0  0  0
   -1.4714   -1.7925    0.6305 H   0  0  0  0  0  0  0  0  0  0  0  0
   -1.9922   -0.7635    2.0024 H   0  0  0  0  0  0  0  0  0  0  0  0
    0.2188    0.3376    2.0568 H   0  0  0  0  0  0  0  0  0  0  0  0
    0.4185   -1.4278    2.0267 H   0  0  0  0  0  0  0  0  0  0  0  0
    0.9237   -1.4543   -0.3501 H   0  0  0  0  0  0  0  0  0  0  0  0
    0.5150    1.6133   -0.4807 H   0  0  0  0  0  0  0  0  0  0  0  0
    0.8449    0.9528   -3.0538 H   0  0  0  0  0  0  0  0  0  0  0  0
    5.0888   -0.6637   -1.9333 H   0  0  0  0  0  0  0  0  0  0  0  0
    4.9146   -0.5551    2.1560 H   0  0  0  0  0  0  0  0  0  0  0  0
    4.9062   -2.3368    1.9645 H   0  0  0  0  0  0  0  0  0  0  0  0
    2.7571   -2.3653    0.9191 H   0  0  0  0  0  0  0  0  0  0  0  0
    2.6324   -1.3039    2.3608 H   0  0  0  0  0  0  0  0  0  0  0  0
    3.8915    1.3026    1.2409 H   0  0  0  0  0  0  0  0  0  0  0  0
    2.3321    1.1847    2.1118 H   0  0  0  0  0  0  0  0  0  0  0  0
    2.4390    1.9823    0.4978 H   0  0  0  0  0  0  0  0  0  0  0  0
  1  2  1  0
  2  3  1  0
  3  4  1  0
  4  5  1  6
  4  6  1  0
  6  7  1  0
  6  8  2  0
  4  9  1  0
  9 10  1  1
  9 11  1  0
 11 12  1  0
 12 13  1  0
 13 14  1  0
 14 15  1  0
 15 16  2  0
 16 17  1  0
 16 18  1  0
 18 19  2  0
 19 20  1  0
 20 21  2  0
 20 22  1  0
 22 23  1  0
 23 24  1  0
 24 25  1  1
  9  1  1  0
 24 13  1  0
 14  1  1  0
 24 18  1  0
  1 26  1  6
  2 27  1  0
  2 28  1  0
  3 29  1  0
  3 30  1  0
  5 31  1  0
  7 32  1  0
  7 33  1  0
  7 34  1  0
 10 35  1  0
 10 36  1  0
 10 37  1  0
 11 38  1  0
 11 39  1  0
 12 40  1  0
 12 41  1  0
 13 42  1  6
 14 43  1  1
 15 44  1  0
 19 45  1  0
 22 46  1  0
 22 47  1  0
 23 48  1  0
 23 49  1  0
 25 50  1  0
 25 51  1  0
 25 52  1  0
M  END
$$$$
