
     RDKit          3D

 59 62  0  0  0  0  0  0  0  0999 V2000
    4.2496    0.9654   -0.1943 C   0  0  1  0  0  0  0  0  0  0  0  0
    3.7943    1.5254   -1.5532 C   0  0  0  0  0  0  0  0  0  0  0  0
    2.6509    0.8597   -2.0155 O   0  0  0  0  0  0  0  0  0  0  0  0
    3.1120    0.8490    0.8479 C   0  0  0  0  0  0  0  0  0  0  0  0
    2.5692    2.2008    1.3529 C   0  0  0  0  0  0  0  0  0  0  0  0
    1.5159    2.7314    0.4820 N   0  0  0  0  0  0  0  0  0  0  0  0
    1.5896    3.8633   -0.2597 C   0  0  0  0  0  0  0  0  0  0  0  0
    0.3964    4.0855   -0.9367 C   0  0  0  0  0  0  0  0  0  0  0  0
   -0.4317    3.0503   -0.5613 C   0  0  0  0  0  0  0  0  0  0  0  0
    0.2664    2.2518    0.3058 C   0  0  0  0  0  0  0  0  0  0  0  0
   -0.3259    1.1349    0.9024 C   0  0  0  0  0  0  0  0  0  0  0  0
   -1.6665    0.8333    0.5804 C   0  0  0  0  0  0  0  0  0  0  0  0
   -2.2800   -0.3304    1.1604 N   0  0  0  0  0  0  0  0  0  0  0  0
   -3.6749   -0.4279    1.4842 C   0  0  0  0  0  0  0  0  0  0  0  0
   -4.3970    0.6059    1.5113 O   0  0  0  0  0  0  0  0  0  0  0  0
   -4.2365   -1.7037    1.8198 N   0  0  0  0  0  0  0  0  0  0  0  0
   -5.6565   -1.8847    2.1124 C   0  0  0  0  0  0  0  0  0  0  0  0
   -6.4675   -1.7649    0.8507 C   0  0  0  0  0  0  0  0  0  0  0  0
   -6.4074   -2.7770   -0.1214 C   0  0  0  0  0  0  0  0  0  0  0  0
   -7.1400   -2.6597   -1.3067 C   0  0  0  0  0  0  0  0  0  0  0  0
   -7.9327   -1.5307   -1.5313 C   0  0  0  0  0  0  0  0  0  0  0  0
   -7.9930   -0.5167   -0.5714 C   0  0  0  0  0  0  0  0  0  0  0  0
   -7.2623   -0.6302    0.6155 C   0  0  0  0  0  0  0  0  0  0  0  0
   -2.3650    1.6500   -0.3488 C   0  0  0  0  0  0  0  0  0  0  0  0
   -1.7486    2.7778   -0.9178 C   0  0  0  0  0  0  0  0  0  0  0  0
    4.8891   -0.3426   -0.3857 N   0  0  0  0  0  0  0  0  0  0  0  0
    4.3060   -1.5013   -0.7596 C   0  0  0  0  0  0  0  0  0  0  0  0
    5.1912   -2.5129   -0.8737 N   0  0  0  0  0  0  0  0  0  0  0  0
    6.3786   -1.9532   -0.5598 C   0  0  0  0  0  0  0  0  0  0  0  0
    6.1989   -0.6168   -0.2623 C   0  0  0  0  0  0  0  0  0  0  0  0
    7.6491   -2.6996   -0.5561 C   0  0  0  0  0  0  0  0  0  0  0  0
    8.8856   -2.0683   -0.2160 N   0  0  0  0  0  0  0  0  0  0  0  0
    7.6454   -3.9223   -0.8593 O   0  0  0  0  0  0  0  0  0  0  0  0
    5.0109    1.6685    0.2134 H   0  0  0  0  0  0  0  0  0  0  0  0
    4.6181    1.4054   -2.2920 H   0  0  0  0  0  0  0  0  0  0  0  0
    3.5945    2.6122   -1.4622 H   0  0  0  0  0  0  0  0  0  0  0  0
    2.3934    1.3089   -2.8620 H   0  0  0  0  0  0  0  0  0  0  0  0
    3.5228    0.3102    1.7301 H   0  0  0  0  0  0  0  0  0  0  0  0
    2.2896    0.2180    0.4527 H   0  0  0  0  0  0  0  0  0  0  0  0
    2.1451    2.0603    2.3709 H   0  0  0  0  0  0  0  0  0  0  0  0
    3.3970    2.9366    1.4521 H   0  0  0  0  0  0  0  0  0  0  0  0
    2.4613    4.5031   -0.3094 H   0  0  0  0  0  0  0  0  0  0  0  0
    0.1640    4.9063   -1.6022 H   0  0  0  0  0  0  0  0  0  0  0  0
    0.2206    0.5232    1.6080 H   0  0  0  0  0  0  0  0  0  0  0  0
   -1.6620   -1.1278    1.4332 H   0  0  0  0  0  0  0  0  0  0  0  0
   -3.6114   -2.5405    1.8469 H   0  0  0  0  0  0  0  0  0  0  0  0
   -5.9804   -1.1457    2.8774 H   0  0  0  0  0  0  0  0  0  0  0  0
   -5.8158   -2.8950    2.5480 H   0  0  0  0  0  0  0  0  0  0  0  0
   -5.7919   -3.6537    0.0390 H   0  0  0  0  0  0  0  0  0  0  0  0
   -7.0914   -3.4429   -2.0521 H   0  0  0  0  0  0  0  0  0  0  0  0
   -8.4983   -1.4408   -2.4497 H   0  0  0  0  0  0  0  0  0  0  0  0
   -8.6046    0.3587   -0.7479 H   0  0  0  0  0  0  0  0  0  0  0  0
   -7.3149    0.1660    1.3476 H   0  0  0  0  0  0  0  0  0  0  0  0
   -3.3755    1.4063   -0.6476 H   0  0  0  0  0  0  0  0  0  0  0  0
   -2.2816    3.4105   -1.6159 H   0  0  0  0  0  0  0  0  0  0  0  0
    3.2471   -1.6143   -0.9519 H   0  0  0  0  0  0  0  0  0  0  0  0
    6.9546    0.1051    0.0171 H   0  0  0  0  0  0  0  0  0  0  0  0
    8.9348   -1.0595    0.0434 H   0  0  0  0  0  0  0  0  0  0  0  0
    9.7715   -2.6210   -0.2221 H   0  0  0  0  0  0  0  0  0  0  0  0
  1  2  1  0
  2  3  1  0
  1  4  1  0
  4  5  1  0
  5  6  1  0
  6  7  1  0
  7  8  2  0
  8  9  1  0
  9 10  2  0
 10 11  1  0
 11 12  2  0
 12 13  1  0
 13 14  1  0
 14 15  2  0
 14 16  1  0
 16 17  1  0
 17 18  1  0
 18 19  2  0
 19 20  1  0
 20 21  2  0
 21 22  1  0
 22 23  2  0
 12 24  1  0
 24 25  2  0
  1 26  1  0
 26 27  1  0
 27 28  2  0
 28 29  1  0
 29 30  2  0
 29 31  1  0
 31 32  1  0
 31 33  2  0
 10  6  1  0
 23 18  1  0
 30 26  1  0
 25  9  1  0
  1 34  1  1
  2 35  1  0
  2 36  1  0
  3 37  1  0
  4 38  1  0
  4 39  1  0
  5 40  1  0
  5 41  1  0
  7 42  1  0
  8 43  1  0
 11 44  1  0
 13 45  1  0
 16 46  1  0
 17 47  1  0
 17 48  1  0
 19 49  1  0
 20 50  1  0
 21 51  1  0
 22 52  1  0
 23 53  1  0
 24 54  1  0
 25 55  1  0
 27 56  1  0
 30 57  1  0
 32 58  1  0
 32 59  1  0
M  END
$$$$
