
     RDKit          3D

 51 54  0  0  0  0  0  0  0  0999 V2000
   -5.2202    0.9297   -1.1447 C   0  0  0  0  0  0  0  0  0  0  0  0
   -4.3440   -0.1980   -0.5804 C   0  0  0  0  0  0  0  0  0  0  0  0
   -4.7043   -1.5285   -1.2534 C   0  0  0  0  0  0  0  0  0  0  0  0
   -2.8398    0.0985   -0.7649 C   0  0  0  0  0  0  0  0  0  0  0  0
   -2.3592    1.2869    0.0837 C   0  0  0  0  0  0  0  0  0  0  0  0
   -0.8533    1.3467    0.1297 C   0  0  0  0  0  0  0  0  0  0  0  0
   -0.2231    1.4492   -0.9125 O   0  0  0  0  0  0  0  0  0  0  0  0
   -0.1119    1.3181    1.4461 C   0  0  0  0  0  0  0  0  0  0  0  0
    0.5653   -0.0397    1.7317 C   0  0  0  0  0  0  0  0  0  0  0  0
    1.5040   -0.4240    0.6593 N   0  0  0  0  0  0  0  0  0  0  0  0
    1.0548   -1.6593    0.0985 C   0  0  0  0  0  0  0  0  0  0  0  0
    1.6291   -2.2697   -0.8421 O   0  0  0  0  0  0  0  0  0  0  0  0
   -0.1318   -2.1071    0.7807 C   0  0  0  0  0  0  0  0  0  0  0  0
   -0.9230   -3.2354    0.5700 C   0  0  0  0  0  0  0  0  0  0  0  0
   -2.0570   -3.4070    1.3806 C   0  0  0  0  0  0  0  0  0  0  0  0
   -2.3701   -2.4595    2.3761 C   0  0  0  0  0  0  0  0  0  0  0  0
   -1.5518   -1.3330    2.5679 C   0  0  0  0  0  0  0  0  0  0  0  0
   -0.4321   -1.1727    1.7472 C   0  0  0  0  0  0  0  0  0  0  0  0
    2.7179    0.2605    0.2926 C   0  0  0  0  0  0  0  0  0  0  0  0
    3.3062   -0.0079   -0.9072 N   0  0  0  0  0  0  0  0  0  0  0  0
    4.4480    0.6096   -1.3082 C   0  0  0  0  0  0  0  0  0  0  0  0
    5.0638    1.5618   -0.4722 C   0  0  0  0  0  0  0  0  0  0  0  0
    6.2395    2.1879   -0.9036 C   0  0  0  0  0  0  0  0  0  0  0  0
    6.7797    1.8601   -2.1494 C   0  0  0  0  0  0  0  0  0  0  0  0
    6.1374    0.9090   -2.9497 C   0  0  0  0  0  0  0  0  0  0  0  0
    6.7984    0.4835   -4.5153 Cl  0  0  0  0  0  0  0  0  0  0  0  0
    4.9958    0.3097   -2.5157 N   0  0  0  0  0  0  0  0  0  0  0  0
    4.4843    1.8528    0.7667 C   0  0  0  0  0  0  0  0  0  0  0  0
    3.3109    1.2016    1.1533 C   0  0  0  0  0  0  0  0  0  0  0  0
   -5.0571    1.8706   -0.5796 H   0  0  0  0  0  0  0  0  0  0  0  0
   -6.2950    0.6656   -1.0482 H   0  0  0  0  0  0  0  0  0  0  0  0
   -4.9907    1.1058   -2.2176 H   0  0  0  0  0  0  0  0  0  0  0  0
   -4.5615   -0.3032    0.5060 H   0  0  0  0  0  0  0  0  0  0  0  0
   -5.7794   -1.7606   -1.0968 H   0  0  0  0  0  0  0  0  0  0  0  0
   -4.1088   -2.3563   -0.8119 H   0  0  0  0  0  0  0  0  0  0  0  0
   -4.5014   -1.4829   -2.3451 H   0  0  0  0  0  0  0  0  0  0  0  0
   -2.2667   -0.8040   -0.4682 H   0  0  0  0  0  0  0  0  0  0  0  0
   -2.6193    0.2940   -1.8377 H   0  0  0  0  0  0  0  0  0  0  0  0
   -2.7338    2.2368   -0.3526 H   0  0  0  0  0  0  0  0  0  0  0  0
   -2.7669    1.1968    1.1135 H   0  0  0  0  0  0  0  0  0  0  0  0
    0.6483    2.1265    1.4434 H   0  0  0  0  0  0  0  0  0  0  0  0
   -0.8062    1.5517    2.2814 H   0  0  0  0  0  0  0  0  0  0  0  0
    1.0931   -0.0100    2.7091 H   0  0  0  0  0  0  0  0  0  0  0  0
   -0.6772   -3.9542   -0.2007 H   0  0  0  0  0  0  0  0  0  0  0  0
   -2.6951   -4.2692    1.2378 H   0  0  0  0  0  0  0  0  0  0  0  0
   -3.2474   -2.5982    2.9941 H   0  0  0  0  0  0  0  0  0  0  0  0
   -1.7927   -0.6000    3.3265 H   0  0  0  0  0  0  0  0  0  0  0  0
    6.7359    2.9237   -0.2825 H   0  0  0  0  0  0  0  0  0  0  0  0
    7.6884    2.3403   -2.4892 H   0  0  0  0  0  0  0  0  0  0  0  0
    4.9376    2.5766    1.4334 H   0  0  0  0  0  0  0  0  0  0  0  0
    2.8822    1.4259    2.1201 H   0  0  0  0  0  0  0  0  0  0  0  0
  1  2  1  0
  2  3  1  0
  2  4  1  0
  4  5  1  0
  5  6  1  0
  6  7  2  0
  6  8  1  0
  8  9  1  0
  9 10  1  0
 10 11  1  0
 11 12  2  0
 11 13  1  0
 13 14  2  0
 14 15  1  0
 15 16  2  0
 16 17  1  0
 17 18  2  0
 10 19  1  0
 19 20  2  0
 20 21  1  0
 21 22  2  0
 22 23  1  0
 23 24  2  0
 24 25  1  0
 25 26  1  0
 25 27  2  0
 22 28  1  0
 28 29  2  0
 18  9  1  0
 29 19  1  0
 18 13  1  0
 27 21  1  0
  1 30  1  0
  1 31  1  0
  1 32  1  0
  2 33  1  0
  3 34  1  0
  3 35  1  0
  3 36  1  0
  4 37  1  0
  4 38  1  0
  5 39  1  0
  5 40  1  0
  8 41  1  0
  8 42  1  0
  9 43  1  0
 14 44  1  0
 15 45  1  0
 16 46  1  0
 17 47  1  0
 23 48  1  0
 24 49  1  0
 28 50  1  0
 29 51  1  0
M  END
$$$$
