
     RDKit          3D

 59 62  0  0  0  0  0  0  0  0999 V2000
    0.0128   -0.4114   -0.7323 C   0  0  2  0  0  0  0  0  0  0  0  0
   -0.6777   -0.5209   -2.0849 C   0  0  0  0  0  0  0  0  0  0  0  0
   -2.1779   -0.3938   -1.7568 C   0  0  0  0  0  0  0  0  0  0  0  0
   -2.2920   -0.0416   -0.2439 C   0  0  2  0  0  0  0  0  0  0  0  0
   -2.4882   -1.2518    0.4583 O   0  0  0  0  0  0  0  0  0  0  0  0
   -3.4799    0.8876    0.0374 C   0  0  0  0  0  0  0  0  0  0  0  0
   -3.3674    1.7990    0.8439 O   0  0  0  0  0  0  0  0  0  0  0  0
   -4.8383    0.6226   -0.5535 C   0  0  0  0  0  0  0  0  0  0  0  0
   -5.7655    0.4511    0.4921 O   0  0  0  0  0  0  0  0  0  0  0  0
   -7.3095    0.2043   -0.1902 P   0  0  0  0  0  5  0  0  0  0  0  0
   -8.4178   -0.0971    1.0518 O   0  0  0  0  0  0  0  0  0  0  0  0
   -7.2846   -1.1207   -1.2441 O   0  0  0  0  0  0  0  0  0  0  0  0
   -7.7447    1.4398   -0.9459 O   0  0  0  0  0  0  0  0  0  0  0  0
   -0.8724    0.5604    0.0643 C   0  0  2  0  0  0  0  0  0  0  0  0
   -0.7997    2.0349   -0.4780 C   0  0  0  0  0  0  0  0  0  0  0  0
   -0.4275    0.4994    1.5527 C   0  0  0  0  0  0  0  0  0  0  0  0
    1.0913    0.7543    1.7560 C   0  0  2  0  0  0  0  0  0  0  0  0
    1.3739    2.1299    1.7137 O   0  0  0  0  0  0  0  0  0  0  0  0
    1.9982   -0.1244    0.8126 C   0  0  1  0  0  0  0  0  0  0  0  0
    1.5293   -0.0899   -0.6857 C   0  0  1  0  0  0  0  0  0  0  0  0
    2.3091   -1.1290   -1.5231 C   0  0  0  0  0  0  0  0  0  0  0  0
    3.8183   -0.9214   -1.4232 C   0  0  0  0  0  0  0  0  0  0  0  0
    4.2372   -0.9419    0.0244 C   0  0  0  0  0  0  0  0  0  0  0  0
    5.1809   -1.8081    0.4273 C   0  0  0  0  0  0  0  0  0  0  0  0
    5.5632   -1.9001    1.8354 C   0  0  0  0  0  0  0  0  0  0  0  0
    6.4652   -2.7008    2.1967 O   0  0  0  0  0  0  0  0  0  0  0  0
    4.8791   -1.0697    2.8227 C   0  0  0  0  0  0  0  0  0  0  0  0
    3.9437   -0.1982    2.4442 C   0  0  0  0  0  0  0  0  0  0  0  0
    3.5598    0.0500    0.9841 C   0  0  2  0  0  0  0  0  0  0  0  0
    4.0718    1.4647    0.6255 C   0  0  0  0  0  0  0  0  0  0  0  0
   -0.0855   -1.4251   -0.2710 H   0  0  0  0  0  0  0  0  0  0  0  0
   -0.3534    0.3063   -2.7540 H   0  0  0  0  0  0  0  0  0  0  0  0
   -0.4575   -1.4961   -2.5714 H   0  0  0  0  0  0  0  0  0  0  0  0
   -2.6229    0.4005   -2.3963 H   0  0  0  0  0  0  0  0  0  0  0  0
   -2.7031   -1.3478   -1.9846 H   0  0  0  0  0  0  0  0  0  0  0  0
   -2.7691   -1.0369    1.3865 H   0  0  0  0  0  0  0  0  0  0  0  0
   -4.8009   -0.2901   -1.1870 H   0  0  0  0  0  0  0  0  0  0  0  0
   -5.1067    1.4989   -1.1854 H   0  0  0  0  0  0  0  0  0  0  0  0
   -8.0446   -0.8744    1.5390 H   0  0  0  0  0  0  0  0  0  0  0  0
   -6.9579   -1.8754   -0.6921 H   0  0  0  0  0  0  0  0  0  0  0  0
    0.1778    2.3162   -0.8981 H   0  0  0  0  0  0  0  0  0  0  0  0
   -1.5157    2.2120   -1.3068 H   0  0  0  0  0  0  0  0  0  0  0  0
   -1.0432    2.7663    0.3210 H   0  0  0  0  0  0  0  0  0  0  0  0
   -1.0149    1.2206    2.1611 H   0  0  0  0  0  0  0  0  0  0  0  0
   -0.6375   -0.5090    1.9684 H   0  0  0  0  0  0  0  0  0  0  0  0
    1.2932    0.4328    2.7992 H   0  0  0  0  0  0  0  0  0  0  0  0
    1.5460    2.3871    0.7769 H   0  0  0  0  0  0  0  0  0  0  0  0
    1.8005   -1.1690    1.1531 H   0  0  0  0  0  0  0  0  0  0  0  0
    1.7339    0.8999   -1.1323 H   0  0  0  0  0  0  0  0  0  0  0  0
    2.0177   -1.0446   -2.5923 H   0  0  0  0  0  0  0  0  0  0  0  0
    2.0626   -2.1598   -1.1830 H   0  0  0  0  0  0  0  0  0  0  0  0
    4.0970    0.0513   -1.8808 H   0  0  0  0  0  0  0  0  0  0  0  0
    4.3252   -1.7179   -2.0115 H   0  0  0  0  0  0  0  0  0  0  0  0
    5.6556   -2.4768   -0.2813 H   0  0  0  0  0  0  0  0  0  0  0  0
    5.1381   -1.1591    3.8707 H   0  0  0  0  0  0  0  0  0  0  0  0
    3.5061    0.4244    3.2138 H   0  0  0  0  0  0  0  0  0  0  0  0
    3.8185    2.2072    1.4100 H   0  0  0  0  0  0  0  0  0  0  0  0
    5.1812    1.4598    0.5481 H   0  0  0  0  0  0  0  0  0  0  0  0
    3.6691    1.8217   -0.3431 H   0  0  0  0  0  0  0  0  0  0  0  0
  1  2  1  0
  2  3  1  0
  3  4  1  0
  4  5  1  1
  4  6  1  0
  6  7  2  0
  6  8  1  0
  8  9  1  0
  9 10  1  0
 10 11  1  0
 10 12  1  0
 10 13  2  0
  4 14  1  0
 14 15  1  6
 14 16  1  0
 16 17  1  0
 17 18  1  0
 17 19  1  0
 19 20  1  0
 20 21  1  0
 21 22  1  0
 22 23  1  0
 23 24  2  0
 24 25  1  0
 25 26  2  0
 25 27  1  0
 27 28  2  0
 28 29  1  0
 29 30  1  6
 14  1  1  0
 29 19  1  0
 20  1  1  0
 29 23  1  0
  1 31  1  1
  2 32  1  0
  2 33  1  0
  3 34  1  0
  3 35  1  0
  5 36  1  0
  8 37  1  0
  8 38  1  0
 11 39  1  0
 12 40  1  0
 15 41  1  0
 15 42  1  0
 15 43  1  0
 16 44  1  0
 16 45  1  0
 17 46  1  1
 18 47  1  0
 19 48  1  1
 20 49  1  6
 21 50  1  0
 21 51  1  0
 22 52  1  0
 22 53  1  0
 24 54  1  0
 27 55  1  0
 28 56  1  0
 30 57  1  0
 30 58  1  0
 30 59  1  0
M  END
$$$$
