
     RDKit          3D

 50 53  0  0  0  0  0  0  0  0999 V2000
   -2.4269   -0.3784    0.2026 C   0  0  2  0  0  0  0  0  0  0  0  0
   -3.5400   -1.4181    0.1174 C   0  0  0  0  0  0  0  0  0  0  0  0
   -4.7413   -0.5176    0.0559 C   0  0  0  0  0  0  0  0  0  0  0  0
   -4.4048    0.7341   -0.2749 C   0  0  0  0  0  0  0  0  0  0  0  0
   -2.9523    0.7987   -0.6319 C   0  0  2  0  0  0  0  0  0  0  0  0
   -2.8613    0.6081   -2.1738 C   0  0  0  0  0  0  0  0  0  0  0  0
   -2.1897    2.0605   -0.1902 C   0  0  0  0  0  0  0  0  0  0  0  0
   -0.6600    1.8718   -0.3909 C   0  0  0  0  0  0  0  0  0  0  0  0
   -0.0981    0.5400    0.2196 C   0  0  1  0  0  0  0  0  0  0  0  0
   -0.9701   -0.7177   -0.1461 C   0  0  1  0  0  0  0  0  0  0  0  0
   -0.4870   -1.9614    0.6235 C   0  0  0  0  0  0  0  0  0  0  0  0
    1.0050   -2.2238    0.3817 C   0  0  0  0  0  0  0  0  0  0  0  0
    1.8404   -0.9885    0.7669 C   0  0  1  0  0  0  0  0  0  0  0  0
    3.3529   -1.2830    0.7115 C   0  0  0  0  0  0  0  0  0  0  0  0
    4.1696   -0.0821    1.2239 C   0  0  2  0  0  0  0  0  0  0  0  0
    3.9604    0.1014    2.6013 O   0  0  0  0  0  0  0  0  0  0  0  0
    3.7977    1.2065    0.4758 C   0  0  0  0  0  0  0  0  0  0  0  0
    2.2811    1.4805    0.4888 C   0  0  0  0  0  0  0  0  0  0  0  0
    1.4345    0.2870   -0.0507 C   0  0  2  0  0  0  0  0  0  0  0  0
    1.7113    0.1252   -1.5777 C   0  0  0  0  0  0  0  0  0  0  0  0
   -2.4208   -0.0735    1.2807 H   0  0  0  0  0  0  0  0  0  0  0  0
   -3.4609   -2.0328   -0.8045 H   0  0  0  0  0  0  0  0  0  0  0  0
   -3.5691   -2.0635    1.0214 H   0  0  0  0  0  0  0  0  0  0  0  0
   -5.7605   -0.8378    0.2444 H   0  0  0  0  0  0  0  0  0  0  0  0
   -5.1218    1.5353   -0.4229 H   0  0  0  0  0  0  0  0  0  0  0  0
   -3.3740    1.4505   -2.6864 H   0  0  0  0  0  0  0  0  0  0  0  0
   -1.8210    0.5822   -2.5497 H   0  0  0  0  0  0  0  0  0  0  0  0
   -3.3533   -0.3336   -2.4975 H   0  0  0  0  0  0  0  0  0  0  0  0
   -2.3935    2.2745    0.8826 H   0  0  0  0  0  0  0  0  0  0  0  0
   -2.5358    2.9409   -0.7742 H   0  0  0  0  0  0  0  0  0  0  0  0
   -0.4282    1.9386   -1.4706 H   0  0  0  0  0  0  0  0  0  0  0  0
   -0.1612    2.7377    0.0923 H   0  0  0  0  0  0  0  0  0  0  0  0
   -0.1989    0.6774    1.3220 H   0  0  0  0  0  0  0  0  0  0  0  0
   -0.9069   -0.9557   -1.2246 H   0  0  0  0  0  0  0  0  0  0  0  0
   -1.0627   -2.8526    0.2921 H   0  0  0  0  0  0  0  0  0  0  0  0
   -0.6642   -1.8285    1.7140 H   0  0  0  0  0  0  0  0  0  0  0  0
    1.1788   -2.5071   -0.6779 H   0  0  0  0  0  0  0  0  0  0  0  0
    1.3115   -3.0893    1.0089 H   0  0  0  0  0  0  0  0  0  0  0  0
    1.6116   -0.7901    1.8404 H   0  0  0  0  0  0  0  0  0  0  0  0
    3.6702   -1.5485   -0.3180 H   0  0  0  0  0  0  0  0  0  0  0  0
    3.5812   -2.1654    1.3488 H   0  0  0  0  0  0  0  0  0  0  0  0
    5.2507   -0.2826    1.0393 H   0  0  0  0  0  0  0  0  0  0  0  0
    4.4651   -0.6159    3.0668 H   0  0  0  0  0  0  0  0  0  0  0  0
    4.1682    1.1514   -0.5695 H   0  0  0  0  0  0  0  0  0  0  0  0
    4.3212    2.0647    0.9506 H   0  0  0  0  0  0  0  0  0  0  0  0
    2.0989    2.3915   -0.1205 H   0  0  0  0  0  0  0  0  0  0  0  0
    1.9760    1.7181    1.5321 H   0  0  0  0  0  0  0  0  0  0  0  0
    1.5288    1.0758   -2.1181 H   0  0  0  0  0  0  0  0  0  0  0  0
    2.7618   -0.1494   -1.7862 H   0  0  0  0  0  0  0  0  0  0  0  0
    1.0870   -0.6557   -2.0483 H   0  0  0  0  0  0  0  0  0  0  0  0
  1  2  1  0
  2  3  1  0
  3  4  2  0
  4  5  1  0
  5  6  1  6
  5  7  1  0
  7  8  1  0
  8  9  1  0
  9 10  1  0
 10 11  1  0
 11 12  1  0
 12 13  1  0
 13 14  1  0
 14 15  1  0
 15 16  1  0
 15 17  1  0
 17 18  1  0
 18 19  1  0
 19 20  1  6
  5  1  1  0
 19  9  1  0
 10  1  1  0
 19 13  1  0
  1 21  1  1
  2 22  1  0
  2 23  1  0
  3 24  1  0
  4 25  1  0
  6 26  1  0
  6 27  1  0
  6 28  1  0
  7 29  1  0
  7 30  1  0
  8 31  1  0
  8 32  1  0
  9 33  1  1
 10 34  1  6
 11 35  1  0
 11 36  1  0
 12 37  1  0
 12 38  1  0
 13 39  1  1
 14 40  1  0
 14 41  1  0
 15 42  1  1
 16 43  1  0
 17 44  1  0
 17 45  1  0
 18 46  1  0
 18 47  1  0
 20 48  1  0
 20 49  1  0
 20 50  1  0
M  END
$$$$
