
     RDKit          3D

 53 52  0  0  0  0  0  0  0  0999 V2000
   -1.1065   -0.1303   -1.1398 C   0  0  2  0  0  0  0  0  0  0  0  0
   -0.0630    0.5204   -2.0636 C   0  0  0  0  0  0  0  0  0  0  0  0
   -2.3891    0.7387   -1.1246 C   0  0  0  0  0  0  0  0  0  0  0  0
   -3.6057    0.0122   -0.5251 C   0  0  0  0  0  0  0  0  0  0  0  0
   -4.8853    0.8479   -0.6942 C   0  0  0  0  0  0  0  0  0  0  0  0
   -6.1555    0.1011   -0.2269 C   0  0  0  0  0  0  0  0  0  0  0  0
   -7.4082    0.8730   -0.6620 C   0  0  0  0  0  0  0  0  0  0  0  0
   -6.1746   -0.1047    1.2957 C   0  0  0  0  0  0  0  0  0  0  0  0
   -0.5447   -0.3363    0.2921 C   0  0  0  0  0  0  0  0  0  0  0  0
    0.6833   -1.2722    0.3535 C   0  0  0  0  0  0  0  0  0  0  0  0
    2.0007   -0.4926    0.5210 C   0  0  0  0  0  0  0  0  0  0  0  0
    3.2397   -1.4185    0.5452 C   0  0  1  0  0  0  0  0  0  0  0  0
    3.5642   -1.9795   -0.8510 C   0  0  0  0  0  0  0  0  0  0  0  0
    4.4734   -0.7345    1.1898 C   0  0  0  0  0  0  0  0  0  0  0  0
    5.0110    0.5003    0.4381 C   0  0  1  0  0  0  0  0  0  0  0  0
    4.1187    1.5734    0.5741 O   0  0  0  0  0  0  0  0  0  0  0  0
    6.6325    0.9891    1.1221 P   0  0  0  0  0  5  0  0  0  0  0  0
    7.2106    2.3463    0.2930 O   0  0  0  0  0  0  0  0  0  0  0  0
    7.7353   -0.2837    0.9535 O   0  0  0  0  0  0  0  0  0  0  0  0
    6.4837    1.3292    2.5875 O   0  0  0  0  0  0  0  0  0  0  0  0
   -1.3618   -1.1241   -1.5711 H   0  0  0  0  0  0  0  0  0  0  0  0
    0.8033   -0.1556   -2.2163 H   0  0  0  0  0  0  0  0  0  0  0  0
    0.2909    1.4836   -1.6373 H   0  0  0  0  0  0  0  0  0  0  0  0
   -0.4982    0.7137   -3.0672 H   0  0  0  0  0  0  0  0  0  0  0  0
   -2.2016    1.6798   -0.5614 H   0  0  0  0  0  0  0  0  0  0  0  0
   -2.6430    1.0213   -2.1704 H   0  0  0  0  0  0  0  0  0  0  0  0
   -3.7374   -0.9687   -1.0320 H   0  0  0  0  0  0  0  0  0  0  0  0
   -3.4323   -0.1622    0.5549 H   0  0  0  0  0  0  0  0  0  0  0  0
   -4.9982    1.0985   -1.7724 H   0  0  0  0  0  0  0  0  0  0  0  0
   -4.7817    1.8044   -0.1352 H   0  0  0  0  0  0  0  0  0  0  0  0
   -6.1892   -0.8975   -0.7167 H   0  0  0  0  0  0  0  0  0  0  0  0
   -7.4284    0.9827   -1.7674 H   0  0  0  0  0  0  0  0  0  0  0  0
   -7.4251    1.8839   -0.2004 H   0  0  0  0  0  0  0  0  0  0  0  0
   -8.3247    0.3237   -0.3577 H   0  0  0  0  0  0  0  0  0  0  0  0
   -7.1360   -0.5645    1.6096 H   0  0  0  0  0  0  0  0  0  0  0  0
   -5.3641   -0.7939    1.6093 H   0  0  0  0  0  0  0  0  0  0  0  0
   -6.0543    0.8649    1.8250 H   0  0  0  0  0  0  0  0  0  0  0  0
   -1.3325   -0.8034    0.9180 H   0  0  0  0  0  0  0  0  0  0  0  0
   -0.3176    0.6492    0.7563 H   0  0  0  0  0  0  0  0  0  0  0  0
    0.5715   -1.9482    1.2300 H   0  0  0  0  0  0  0  0  0  0  0  0
    0.7174   -1.9204   -0.5467 H   0  0  0  0  0  0  0  0  0  0  0  0
    1.9454    0.0648    1.4821 H   0  0  0  0  0  0  0  0  0  0  0  0
    2.1059    0.2539   -0.2925 H   0  0  0  0  0  0  0  0  0  0  0  0
    3.0022   -2.2885    1.1981 H   0  0  0  0  0  0  0  0  0  0  0  0
    3.6051   -1.1705   -1.6102 H   0  0  0  0  0  0  0  0  0  0  0  0
    4.5391   -2.5117   -0.8391 H   0  0  0  0  0  0  0  0  0  0  0  0
    2.7915   -2.7118   -1.1634 H   0  0  0  0  0  0  0  0  0  0  0  0
    5.2821   -1.4950    1.2624 H   0  0  0  0  0  0  0  0  0  0  0  0
    4.2225   -0.4437    2.2339 H   0  0  0  0  0  0  0  0  0  0  0  0
    5.1609    0.2528   -0.6357 H   0  0  0  0  0  0  0  0  0  0  0  0
    4.3420    2.2235   -0.1421 H   0  0  0  0  0  0  0  0  0  0  0  0
    7.2742    2.0574   -0.6522 H   0  0  0  0  0  0  0  0  0  0  0  0
    7.7516   -0.4776   -0.0176 H   0  0  0  0  0  0  0  0  0  0  0  0
  1  2  1  0
  1  3  1  0
  3  4  1  0
  4  5  1  0
  5  6  1  0
  6  7  1  0
  6  8  1  0
  1  9  1  0
  9 10  1  0
 10 11  1  0
 11 12  1  0
 12 13  1  0
 12 14  1  0
 14 15  1  0
 15 16  1  0
 15 17  1  0
 17 18  1  0
 17 19  1  0
 17 20  2  0
  1 21  1  6
  2 22  1  0
  2 23  1  0
  2 24  1  0
  3 25  1  0
  3 26  1  0
  4 27  1  0
  4 28  1  0
  5 29  1  0
  5 30  1  0
  6 31  1  0
  7 32  1  0
  7 33  1  0
  7 34  1  0
  8 35  1  0
  8 36  1  0
  8 37  1  0
  9 38  1  0
  9 39  1  0
 10 40  1  0
 10 41  1  0
 11 42  1  0
 11 43  1  0
 12 44  1  1
 13 45  1  0
 13 46  1  0
 13 47  1  0
 14 48  1  0
 14 49  1  0
 15 50  1  6
 16 51  1  0
 18 52  1  0
 19 53  1  0
M  END
$$$$
