
     RDKit          3D

 35 35  0  0  0  0  0  0  0  0999 V2000
    4.1496    1.4323    0.3345 C   0  0  0  0  0  0  0  0  0  0  0  0
    3.2338    0.2127    0.4065 C   0  0  0  0  0  0  0  0  0  0  0  0
    1.7851    0.5812    0.0400 C   0  0  0  0  0  0  0  0  0  0  0  0
    0.7749   -0.5748    0.3045 C   0  0  0  0  0  0  0  0  0  0  0  0
    1.1023   -1.7860   -0.6023 C   0  0  0  0  0  0  0  0  0  0  0  0
   -0.7449   -0.1488    0.1844 C   0  0  0  0  0  0  0  0  0  0  0  0
   -1.0652    1.0708    1.1147 C   0  0  0  0  0  0  0  0  0  0  0  0
   -2.5444    1.3235    1.3058 C   0  0  0  0  0  0  0  0  0  0  0  0
   -3.2885    1.9452    0.3865 C   0  0  0  0  0  0  0  0  0  0  0  0
   -1.0648    0.2323   -1.2619 C   0  0  0  0  0  0  0  0  0  0  0  0
   -0.6181    1.3123   -1.7356 O   0  0  0  0  0  0  0  0  0  0  0  0
   -1.8317   -0.6188   -2.1173 N   0  0  0  0  0  0  0  0  0  0  0  0
   -2.4856   -1.7806   -1.6165 C   0  0  0  0  0  0  0  0  0  0  0  0
   -3.3712   -2.7205   -2.6225 S   0  0  0  0  0  0  0  0  0  0  0  0
   -2.3973   -2.1035   -0.2323 N   0  0  0  0  0  0  0  0  0  0  0  0
   -1.5949   -1.3298    0.6634 C   0  0  0  0  0  0  0  0  0  0  0  0
   -1.5574   -1.6632    1.8798 O   0  0  0  0  0  0  0  0  0  0  0  0
    4.1369    1.8638   -0.6891 H   0  0  0  0  0  0  0  0  0  0  0  0
    3.8234    2.2050    1.0628 H   0  0  0  0  0  0  0  0  0  0  0  0
    5.1897    1.1314    0.5805 H   0  0  0  0  0  0  0  0  0  0  0  0
    3.2712   -0.2013    1.4375 H   0  0  0  0  0  0  0  0  0  0  0  0
    3.6256   -0.5500   -0.2984 H   0  0  0  0  0  0  0  0  0  0  0  0
    1.5148    1.4631    0.6528 H   0  0  0  0  0  0  0  0  0  0  0  0
    1.7559    0.8814   -1.0287 H   0  0  0  0  0  0  0  0  0  0  0  0
    0.9404   -0.9068    1.3547 H   0  0  0  0  0  0  0  0  0  0  0  0
    1.1091   -1.4879   -1.6722 H   0  0  0  0  0  0  0  0  0  0  0  0
    0.3686   -2.6063   -0.4689 H   0  0  0  0  0  0  0  0  0  0  0  0
    2.0913   -2.2155   -0.3438 H   0  0  0  0  0  0  0  0  0  0  0  0
   -0.6070    2.0090    0.7360 H   0  0  0  0  0  0  0  0  0  0  0  0
   -0.6245    0.8861    2.1189 H   0  0  0  0  0  0  0  0  0  0  0  0
   -3.0107    1.0149    2.2368 H   0  0  0  0  0  0  0  0  0  0  0  0
   -2.8564    2.2991   -0.5432 H   0  0  0  0  0  0  0  0  0  0  0  0
   -4.3443    2.1157    0.5697 H   0  0  0  0  0  0  0  0  0  0  0  0
   -1.9449   -0.3575   -3.1230 H   0  0  0  0  0  0  0  0  0  0  0  0
   -2.9207   -2.9284    0.1391 H   0  0  0  0  0  0  0  0  0  0  0  0
  1  2  1  0
  2  3  1  0
  3  4  1  0
  4  5  1  0
  4  6  1  0
  6  7  1  0
  7  8  1  0
  8  9  2  3
  6 10  1  0
 10 11  2  0
 10 12  1  0
 12 13  1  0
 13 14  2  0
 13 15  1  0
 15 16  1  0
 16 17  2  0
 16  6  1  0
  1 18  1  0
  1 19  1  0
  1 20  1  0
  2 21  1  0
  2 22  1  0
  3 23  1  0
  3 24  1  0
  4 25  1  0
  5 26  1  0
  5 27  1  0
  5 28  1  0
  7 29  1  0
  7 30  1  0
  8 31  1  0
  9 32  1  0
  9 33  1  0
 12 34  1  0
 15 35  1  0
M  END
$$$$
