
     RDKit          3D

 35 36  0  0  0  0  0  0  0  0999 V2000
   -3.7292    2.0934    2.5031 N   0  0  0  0  0  0  0  0  0  0  0  0
   -3.4862    1.4213    1.2697 C   0  0  0  0  0  0  0  0  0  0  0  0
   -4.4534    1.3745    0.3190 N   0  0  0  0  0  0  0  0  0  0  0  0
   -4.2507    0.7415   -0.8662 C   0  0  0  0  0  0  0  0  0  0  0  0
   -5.3044    0.7227   -1.8335 N   0  0  0  0  0  0  0  0  0  0  0  0
   -3.0161    0.1190   -1.1224 C   0  0  0  0  0  0  0  0  0  0  0  0
   -2.8014   -0.5480   -2.3752 N   0  0  0  0  0  0  0  0  0  0  0  0
   -1.7276   -1.1153   -2.6636 O   0  0  0  0  0  0  0  0  0  0  0  0
   -2.0250    0.1783   -0.1226 C   0  0  0  0  0  0  0  0  0  0  0  0
   -0.7786   -0.4240   -0.3230 O   0  0  0  0  0  0  0  0  0  0  0  0
    0.2665   -0.3875    0.6451 C   0  0  0  0  0  0  0  0  0  0  0  0
    1.5032   -1.1281    0.1104 C   0  0  0  0  0  0  0  0  0  0  0  0
    2.6328   -1.1703    1.1758 C   0  0  0  0  0  0  0  0  0  0  0  0
    3.6586   -0.0501    0.9696 C   0  0  0  0  0  0  0  0  0  0  0  0
    4.3494   -0.1570   -0.4050 C   0  0  0  0  0  0  0  0  0  0  0  0
    3.4569   -0.7880   -1.4927 C   0  0  0  0  0  0  0  0  0  0  0  0
    1.9729   -0.5107   -1.2339 C   0  0  0  0  0  0  0  0  0  0  0  0
   -2.2873    0.8274    1.0445 N   0  0  0  0  0  0  0  0  0  0  0  0
   -2.9888    2.1328    3.2383 H   0  0  0  0  0  0  0  0  0  0  0  0
   -4.6496    2.5525    2.6827 H   0  0  0  0  0  0  0  0  0  0  0  0
   -6.2135    1.1914   -1.6233 H   0  0  0  0  0  0  0  0  0  0  0  0
   -5.1954    0.2492   -2.7575 H   0  0  0  0  0  0  0  0  0  0  0  0
   -0.0879   -0.8792    1.5777 H   0  0  0  0  0  0  0  0  0  0  0  0
    0.5269    0.6691    0.8756 H   0  0  0  0  0  0  0  0  0  0  0  0
    1.1971   -2.1805   -0.0859 H   0  0  0  0  0  0  0  0  0  0  0  0
    3.1622   -2.1466    1.1077 H   0  0  0  0  0  0  0  0  0  0  0  0
    2.2177   -1.1058    2.2053 H   0  0  0  0  0  0  0  0  0  0  0  0
    4.4249   -0.0939    1.7736 H   0  0  0  0  0  0  0  0  0  0  0  0
    3.1428    0.9318    1.0517 H   0  0  0  0  0  0  0  0  0  0  0  0
    5.2739   -0.7668   -0.3068 H   0  0  0  0  0  0  0  0  0  0  0  0
    4.6584    0.8615   -0.7266 H   0  0  0  0  0  0  0  0  0  0  0  0
    3.7437   -0.3851   -2.4881 H   0  0  0  0  0  0  0  0  0  0  0  0
    3.6196   -1.8882   -1.5160 H   0  0  0  0  0  0  0  0  0  0  0  0
    1.3699   -0.9330   -2.0671 H   0  0  0  0  0  0  0  0  0  0  0  0
    1.8179    0.5915   -1.2350 H   0  0  0  0  0  0  0  0  0  0  0  0
  1  2  1  0
  2  3  2  0
  3  4  1  0
  4  5  1  0
  4  6  2  0
  6  7  1  0
  7  8  2  0
  6  9  1  0
  9 10  1  0
 10 11  1  0
 11 12  1  0
 12 13  1  0
 13 14  1  0
 14 15  1  0
 15 16  1  0
 16 17  1  0
  9 18  2  0
 18  2  1  0
 17 12  1  0
  1 19  1  0
  1 20  1  0
  5 21  1  0
  5 22  1  0
 11 23  1  0
 11 24  1  0
 12 25  1  0
 13 26  1  0
 13 27  1  0
 14 28  1  0
 14 29  1  0
 15 30  1  0
 15 31  1  0
 16 32  1  0
 16 33  1  0
 17 34  1  0
 17 35  1  0
M  END
$$$$
