
     RDKit          3D

 92 96  0  0  0  0  0  0  0  0999 V2000
    5.9825   -3.1676    3.8687 C   0  0  0  0  0  0  0  0  0  0  0  0
    6.1751   -3.0344    2.3454 C   0  0  0  0  0  0  0  0  0  0  0  0
    6.6922   -4.3809    1.7982 C   0  0  0  0  0  0  0  0  0  0  0  0
    7.2192   -1.9455    2.0293 C   0  0  0  0  0  0  0  0  0  0  0  0
    4.8899   -2.7133    1.6939 N   0  0  0  0  0  0  0  0  0  0  0  0
    4.1034   -1.5353    1.9523 C   0  0  0  0  0  0  0  0  0  0  0  0
    4.4951   -0.6680    2.7790 O   0  0  0  0  0  0  0  0  0  0  0  0
    2.8338   -1.3011    1.1776 C   0  0  2  0  0  0  0  0  0  0  0  0
    3.1586   -0.6383   -0.1738 C   0  0  0  0  0  0  0  0  0  0  0  0
    1.9558    0.0416   -0.6699 N   0  0  0  0  0  0  0  0  0  0  0  0
    1.9859    0.3257   -2.1221 C   0  0  0  0  0  0  0  0  0  0  0  0
    3.1130    1.2439   -2.5465 C   0  0  0  0  0  0  0  0  0  0  0  0
    2.9036    2.6275   -2.6645 C   0  0  0  0  0  0  0  0  0  0  0  0
    3.9207    3.4448   -3.0473 N   0  0  0  0  0  0  0  0  0  0  0  0
    5.1582    2.9603   -3.3325 C   0  0  0  0  0  0  0  0  0  0  0  0
    5.4105    1.5907   -3.2414 C   0  0  0  0  0  0  0  0  0  0  0  0
    4.3828    0.7303   -2.8517 C   0  0  0  0  0  0  0  0  0  0  0  0
    1.6386    1.2244    0.1507 C   0  0  0  0  0  0  0  0  0  0  0  0
    1.7777    0.9395    1.6639 C   0  0  0  0  0  0  0  0  0  0  0  0
    1.8827   -0.4987    1.9902 N   0  0  0  0  0  0  0  0  0  0  0  0
    0.6288   -1.1815    2.3847 C   0  0  0  0  0  0  0  0  0  0  0  0
   -0.3258   -1.5068    1.2008 C   0  0  1  0  0  0  0  0  0  0  0  0
   -0.9441   -2.7524    1.4147 O   0  0  0  0  0  0  0  0  0  0  0  0
   -1.4044   -0.4122    0.9875 C   0  0  0  0  0  0  0  0  0  0  0  0
   -1.8449   -0.2731   -0.4885 C   0  0  1  0  0  0  0  0  0  0  0  0
   -2.6317   -1.5060   -0.9850 C   0  0  0  0  0  0  0  0  0  0  0  0
   -3.0249   -1.3669   -2.4346 C   0  0  0  0  0  0  0  0  0  0  0  0
   -4.3303   -0.9825   -2.7847 C   0  0  0  0  0  0  0  0  0  0  0  0
   -4.6782   -0.8143   -4.1283 C   0  0  0  0  0  0  0  0  0  0  0  0
   -3.7260   -1.0230   -5.1299 C   0  0  0  0  0  0  0  0  0  0  0  0
   -2.4234   -1.3978   -4.7893 C   0  0  0  0  0  0  0  0  0  0  0  0
   -2.0711   -1.5666   -3.4468 C   0  0  0  0  0  0  0  0  0  0  0  0
   -2.6468    0.9949   -0.6626 C   0  0  0  0  0  0  0  0  0  0  0  0
   -2.2003    1.9080   -1.4097 O   0  0  0  0  0  0  0  0  0  0  0  0
   -3.8987    1.1711    0.0169 N   0  0  0  0  0  0  0  0  0  0  0  0
   -4.6596    2.4203   -0.0838 C   0  0  2  0  0  0  0  0  0  0  0  0
   -4.0504    3.5629    0.7812 C   0  0  2  0  0  0  0  0  0  0  0  0
   -3.0297    3.1038    1.6362 O   0  0  0  0  0  0  0  0  0  0  0  0
   -5.2127    4.1815    1.5951 C   0  0  0  0  0  0  0  0  0  0  0  0
   -6.3366    3.2395    1.3818 C   0  0  0  0  0  0  0  0  0  0  0  0
   -7.5970    3.2990    1.9821 C   0  0  0  0  0  0  0  0  0  0  0  0
   -8.5594    2.3408    1.6290 C   0  0  0  0  0  0  0  0  0  0  0  0
   -8.2550    1.3507    0.6781 C   0  0  0  0  0  0  0  0  0  0  0  0
   -6.9864    1.3141    0.0801 C   0  0  0  0  0  0  0  0  0  0  0  0
   -6.0348    2.2664    0.4596 C   0  0  0  0  0  0  0  0  0  0  0  0
    5.7058   -2.1985    4.3311 H   0  0  0  0  0  0  0  0  0  0  0  0
    6.9217   -3.5129    4.3527 H   0  0  0  0  0  0  0  0  0  0  0  0
    5.1799   -3.9031    4.0916 H   0  0  0  0  0  0  0  0  0  0  0  0
    6.8420   -4.3211    0.6984 H   0  0  0  0  0  0  0  0  0  0  0  0
    7.6611   -4.6564    2.2685 H   0  0  0  0  0  0  0  0  0  0  0  0
    5.9599   -5.1910    2.0057 H   0  0  0  0  0  0  0  0  0  0  0  0
    7.3018   -1.7999    0.9307 H   0  0  0  0  0  0  0  0  0  0  0  0
    6.9482   -0.9741    2.4902 H   0  0  0  0  0  0  0  0  0  0  0  0
    8.2175   -2.2350    2.4229 H   0  0  0  0  0  0  0  0  0  0  0  0
    4.5154   -3.3782    0.9784 H   0  0  0  0  0  0  0  0  0  0  0  0
    2.3928   -2.3001    0.9598 H   0  0  0  0  0  0  0  0  0  0  0  0
    3.4817   -1.4315   -0.8843 H   0  0  0  0  0  0  0  0  0  0  0  0
    3.9949    0.0914   -0.0665 H   0  0  0  0  0  0  0  0  0  0  0  0
    2.0614   -0.6335   -2.6796 H   0  0  0  0  0  0  0  0  0  0  0  0
    1.0112    0.7644   -2.4297 H   0  0  0  0  0  0  0  0  0  0  0  0
    1.9332    3.0560   -2.4487 H   0  0  0  0  0  0  0  0  0  0  0  0
    5.9453    3.6384   -3.6340 H   0  0  0  0  0  0  0  0  0  0  0  0
    6.3924    1.1993   -3.4736 H   0  0  0  0  0  0  0  0  0  0  0  0
    4.5767   -0.3329   -2.7914 H   0  0  0  0  0  0  0  0  0  0  0  0
    2.3118    2.0719   -0.0987 H   0  0  0  0  0  0  0  0  0  0  0  0
    0.6025    1.5544   -0.0709 H   0  0  0  0  0  0  0  0  0  0  0  0
    2.7044    1.4344    2.0277 H   0  0  0  0  0  0  0  0  0  0  0  0
    0.9477    1.4194    2.2253 H   0  0  0  0  0  0  0  0  0  0  0  0
    0.0987   -0.5857    3.1600 H   0  0  0  0  0  0  0  0  0  0  0  0
    0.9081   -2.1299    2.8951 H   0  0  0  0  0  0  0  0  0  0  0  0
    0.2733   -1.6110    0.2765 H   0  0  0  0  0  0  0  0  0  0  0  0
   -1.4419   -2.6992    2.2727 H   0  0  0  0  0  0  0  0  0  0  0  0
   -2.2869   -0.6173    1.6321 H   0  0  0  0  0  0  0  0  0  0  0  0
   -1.0113    0.5685    1.3223 H   0  0  0  0  0  0  0  0  0  0  0  0
   -0.9286   -0.1815   -1.1121 H   0  0  0  0  0  0  0  0  0  0  0  0
   -3.5308   -1.6721   -0.3525 H   0  0  0  0  0  0  0  0  0  0  0  0
   -2.0023   -2.4155   -0.8881 H   0  0  0  0  0  0  0  0  0  0  0  0
   -5.0752   -0.8085   -2.0187 H   0  0  0  0  0  0  0  0  0  0  0  0
   -5.6852   -0.5187   -4.3928 H   0  0  0  0  0  0  0  0  0  0  0  0
   -3.9966   -0.8909   -6.1695 H   0  0  0  0  0  0  0  0  0  0  0  0
   -1.6853   -1.5537   -5.5655 H   0  0  0  0  0  0  0  0  0  0  0  0
   -1.0556   -1.8470   -3.1947 H   0  0  0  0  0  0  0  0  0  0  0  0
   -4.2580    0.3991    0.6231 H   0  0  0  0  0  0  0  0  0  0  0  0
   -4.7380    2.7343   -1.1483 H   0  0  0  0  0  0  0  0  0  0  0  0
   -3.6157    4.3366    0.1114 H   0  0  0  0  0  0  0  0  0  0  0  0
   -3.4331    2.4469    2.2630 H   0  0  0  0  0  0  0  0  0  0  0  0
   -4.9715    4.2664    2.6770 H   0  0  0  0  0  0  0  0  0  0  0  0
   -5.4841    5.1807    1.1910 H   0  0  0  0  0  0  0  0  0  0  0  0
   -7.8299    4.0718    2.7031 H   0  0  0  0  0  0  0  0  0  0  0  0
   -9.5410    2.3689    2.0840 H   0  0  0  0  0  0  0  0  0  0  0  0
   -9.0029    0.6188    0.4021 H   0  0  0  0  0  0  0  0  0  0  0  0
   -6.7513    0.5621   -0.6615 H   0  0  0  0  0  0  0  0  0  0  0  0
  1  2  1  0
  2  3  1  0
  2  4  1  0
  2  5  1  0
  5  6  1  0
  6  7  2  0
  6  8  1  0
  8  9  1  0
  9 10  1  0
 10 11  1  0
 11 12  1  0
 12 13  2  0
 13 14  1  0
 14 15  2  0
 15 16  1  0
 16 17  2  0
 10 18  1  0
 18 19  1  0
 19 20  1  0
 20 21  1  0
 21 22  1  0
 22 23  1  0
 22 24  1  0
 24 25  1  0
 25 26  1  0
 26 27  1  0
 27 28  2  0
 28 29  1  0
 29 30  2  0
 30 31  1  0
 31 32  2  0
 25 33  1  0
 33 34  2  0
 33 35  1  0
 35 36  1  0
 36 37  1  0
 37 38  1  0
 37 39  1  0
 39 40  1  0
 40 41  2  0
 41 42  1  0
 42 43  2  0
 43 44  1  0
 44 45  2  0
 20  8  1  0
 32 27  1  0
 45 36  1  0
 17 12  1  0
 45 40  1  0
  1 46  1  0
  1 47  1  0
  1 48  1  0
  3 49  1  0
  3 50  1  0
  3 51  1  0
  4 52  1  0
  4 53  1  0
  4 54  1  0
  5 55  1  0
  8 56  1  6
  9 57  1  0
  9 58  1  0
 11 59  1  0
 11 60  1  0
 13 61  1  0
 15 62  1  0
 16 63  1  0
 17 64  1  0
 18 65  1  0
 18 66  1  0
 19 67  1  0
 19 68  1  0
 21 69  1  0
 21 70  1  0
 22 71  1  6
 23 72  1  0
 24 73  1  0
 24 74  1  0
 25 75  1  6
 26 76  1  0
 26 77  1  0
 28 78  1  0
 29 79  1  0
 30 80  1  0
 31 81  1  0
 32 82  1  0
 35 83  1  0
 36 84  1  6
 37 85  1  6
 38 86  1  0
 39 87  1  0
 39 88  1  0
 41 89  1  0
 42 90  1  0
 43 91  1  0
 44 92  1  0
M  END
$$$$
