
     RDKit          3D

 45 47  0  0  0  0  0  0  0  0999 V2000
    0.4774   -0.9914    1.9941 C   0  0  2  0  0  0  0  0  0  0  0  0
    0.9558   -0.2218    3.2370 C   0  0  0  0  0  0  0  0  0  0  0  0
    2.1751    0.5485    2.7521 C   0  0  0  0  0  0  0  0  0  0  0  0
    2.2811    0.1843    1.2604 C   0  0  1  0  0  0  0  0  0  0  0  0
    1.6564   -1.1389    1.1303 N   0  0  0  0  0  0  0  0  0  0  0  0
    2.5430   -2.2357    1.5586 C   0  0  0  0  0  0  0  0  0  0  0  0
    1.4557    1.1915    0.3837 C   0  0  1  0  0  0  0  0  0  0  0  0
    2.2071    1.5614   -0.8702 C   0  0  0  0  0  0  0  0  0  0  0  0
    2.2455    2.7660   -1.2438 O   0  0  0  0  0  0  0  0  0  0  0  0
    2.8133    0.5616   -1.6386 O   0  0  0  0  0  0  0  0  0  0  0  0
    3.4813    0.8358   -2.8633 C   0  0  0  0  0  0  0  0  0  0  0  0
    0.0306    0.6445    0.0328 C   0  0  2  0  0  0  0  0  0  0  0  0
   -0.5861   -0.1658    1.2105 C   0  0  0  0  0  0  0  0  0  0  0  0
    0.1214   -0.2164   -1.0939 O   0  0  0  0  0  0  0  0  0  0  0  0
   -1.0381    0.2078   -2.2758 P   0  0  2  0  0  5  0  0  0  0  0  0
   -0.8951   -0.8519   -3.5873 O   0  0  0  0  0  0  0  0  0  0  0  0
   -0.7788    1.6157   -2.7652 O   0  0  0  0  0  0  0  0  0  0  0  0
   -2.6975    0.0799   -1.5966 C   0  0  0  0  0  0  0  0  0  0  0  0
   -3.2835   -1.1812   -1.4172 C   0  0  0  0  0  0  0  0  0  0  0  0
   -4.5552   -1.2898   -0.8460 C   0  0  0  0  0  0  0  0  0  0  0  0
   -5.2428   -0.1411   -0.4442 C   0  0  0  0  0  0  0  0  0  0  0  0
   -4.6577    1.1175   -0.6102 C   0  0  0  0  0  0  0  0  0  0  0  0
   -3.3861    1.2293   -1.1811 C   0  0  0  0  0  0  0  0  0  0  0  0
    0.0471   -1.9772    2.2833 H   0  0  0  0  0  0  0  0  0  0  0  0
    1.2525   -0.9395    4.0330 H   0  0  0  0  0  0  0  0  0  0  0  0
    0.1865    0.4592    3.6605 H   0  0  0  0  0  0  0  0  0  0  0  0
    3.0828    0.1964    3.2898 H   0  0  0  0  0  0  0  0  0  0  0  0
    2.0750    1.6388    2.9411 H   0  0  0  0  0  0  0  0  0  0  0  0
    3.3527    0.1675    0.9539 H   0  0  0  0  0  0  0  0  0  0  0  0
    2.8786   -2.1228    2.6114 H   0  0  0  0  0  0  0  0  0  0  0  0
    3.4364   -2.2737    0.8999 H   0  0  0  0  0  0  0  0  0  0  0  0
    2.0122   -3.2058    1.4560 H   0  0  0  0  0  0  0  0  0  0  0  0
    1.3068    2.1390    0.9485 H   0  0  0  0  0  0  0  0  0  0  0  0
    4.3277    1.5329   -2.6871 H   0  0  0  0  0  0  0  0  0  0  0  0
    2.7709    1.2826   -3.5909 H   0  0  0  0  0  0  0  0  0  0  0  0
    3.8766   -0.1120   -3.2826 H   0  0  0  0  0  0  0  0  0  0  0  0
   -0.6174    1.5371   -0.1395 H   0  0  0  0  0  0  0  0  0  0  0  0
   -1.1431    0.5238    1.8807 H   0  0  0  0  0  0  0  0  0  0  0  0
   -1.3476   -0.8663    0.8054 H   0  0  0  0  0  0  0  0  0  0  0  0
   -0.7052   -1.7350   -3.1812 H   0  0  0  0  0  0  0  0  0  0  0  0
   -2.7553   -2.0790   -1.7117 H   0  0  0  0  0  0  0  0  0  0  0  0
   -5.0056   -2.2646   -0.7105 H   0  0  0  0  0  0  0  0  0  0  0  0
   -6.2263   -0.2264   -0.0004 H   0  0  0  0  0  0  0  0  0  0  0  0
   -5.1878    2.0061   -0.2925 H   0  0  0  0  0  0  0  0  0  0  0  0
   -2.9402    2.2092   -1.2932 H   0  0  0  0  0  0  0  0  0  0  0  0
  1  2  1  0
  2  3  1  0
  3  4  1  0
  4  5  1  0
  5  6  1  0
  4  7  1  0
  7  8  1  0
  8  9  2  0
  8 10  1  0
 10 11  1  0
  7 12  1  0
 12 13  1  0
 12 14  1  0
 15 14  1  1
 15 16  1  0
 15 17  2  0
 15 18  1  0
 18 19  2  0
 19 20  1  0
 20 21  2  0
 21 22  1  0
 22 23  2  0
  5  1  1  0
 23 18  1  0
 13  1  1  0
  1 24  1  1
  2 25  1  0
  2 26  1  0
  3 27  1  0
  3 28  1  0
  4 29  1  6
  6 30  1  0
  6 31  1  0
  6 32  1  0
  7 33  1  1
 11 34  1  0
 11 35  1  0
 11 36  1  0
 12 37  1  6
 13 38  1  0
 13 39  1  0
 16 40  1  0
 19 41  1  0
 20 42  1  0
 21 43  1  0
 22 44  1  0
 23 45  1  0
M  END
$$$$
