
     RDKit          3D

 49 49  0  0  0  0  0  0  0  0999 V2000
   -2.0560    0.0014    0.4449 C   0  0  2  0  0  0  0  0  0  0  0  0
   -2.7367   -1.2400   -0.1709 C   0  0  0  0  0  0  0  0  0  0  0  0
   -4.1495   -1.5252    0.3961 C   0  0  0  0  0  0  0  0  0  0  0  0
   -4.1020   -1.9664    1.8673 C   0  0  0  0  0  0  0  0  0  0  0  0
   -4.8412   -2.6051   -0.4463 C   0  0  0  0  0  0  0  0  0  0  0  0
   -2.8271    1.2182    0.1714 N   0  0  0  0  0  0  0  0  0  0  0  0
   -2.6360    2.4244    0.9235 C   0  0  0  0  0  0  0  0  0  0  0  0
   -3.3952    3.6579    0.5592 C   0  0  0  0  0  0  0  0  0  0  0  0
   -1.8063    2.4610    1.8724 O   0  0  0  0  0  0  0  0  0  0  0  0
   -0.6685    0.1548   -0.1186 C   0  0  0  0  0  0  0  0  0  0  0  0
   -0.5249    0.4789   -1.3290 O   0  0  0  0  0  0  0  0  0  0  0  0
    0.4799   -0.0662    0.7178 N   0  0  0  0  0  0  0  0  0  0  0  0
    1.8641    0.1625    0.2899 C   0  0  1  0  0  0  0  0  0  0  0  0
    2.2771   -0.8725   -0.7806 C   0  0  0  0  0  0  0  0  0  0  0  0
    3.7657   -0.8597   -1.0288 C   0  0  0  0  0  0  0  0  0  0  0  0
    4.2947   -0.2446   -2.1766 C   0  0  0  0  0  0  0  0  0  0  0  0
    5.6765   -0.2198   -2.3896 C   0  0  0  0  0  0  0  0  0  0  0  0
    6.5395   -0.8067   -1.4603 C   0  0  0  0  0  0  0  0  0  0  0  0
    6.0222   -1.4198   -0.3161 C   0  0  0  0  0  0  0  0  0  0  0  0
    4.6411   -1.4467   -0.0991 C   0  0  0  0  0  0  0  0  0  0  0  0
    2.0435    1.6055   -0.1485 C   0  0  0  0  0  0  0  0  0  0  0  0
    2.0840    1.8879   -1.3372 O   0  0  0  0  0  0  0  0  0  0  0  0
    2.1046    2.7219    0.8586 C   0  0  0  0  0  0  0  0  0  0  0  0
    3.3208    3.3699    0.7504 F   0  0  0  0  0  0  0  0  0  0  0  0
    1.9645    2.2430    2.1494 F   0  0  0  0  0  0  0  0  0  0  0  0
    1.0868    3.6233    0.6062 F   0  0  0  0  0  0  0  0  0  0  0  0
   -1.9830   -0.1430    1.5429 H   0  0  0  0  0  0  0  0  0  0  0  0
   -2.8107   -1.0900   -1.2715 H   0  0  0  0  0  0  0  0  0  0  0  0
   -2.0908   -2.1315   -0.0055 H   0  0  0  0  0  0  0  0  0  0  0  0
   -4.7691   -0.6046    0.3284 H   0  0  0  0  0  0  0  0  0  0  0  0
   -5.1153   -2.2633    2.2129 H   0  0  0  0  0  0  0  0  0  0  0  0
   -3.4150   -2.8300    1.9975 H   0  0  0  0  0  0  0  0  0  0  0  0
   -3.7678   -1.1328    2.5178 H   0  0  0  0  0  0  0  0  0  0  0  0
   -5.8683   -2.7921   -0.0663 H   0  0  0  0  0  0  0  0  0  0  0  0
   -4.9247   -2.2738   -1.5034 H   0  0  0  0  0  0  0  0  0  0  0  0
   -4.2668   -3.5561   -0.4122 H   0  0  0  0  0  0  0  0  0  0  0  0
   -3.4770    1.2428   -0.6474 H   0  0  0  0  0  0  0  0  0  0  0  0
   -4.4694    3.4115    0.4268 H   0  0  0  0  0  0  0  0  0  0  0  0
   -2.9947    4.0707   -0.3899 H   0  0  0  0  0  0  0  0  0  0  0  0
   -3.3001    4.4244    1.3575 H   0  0  0  0  0  0  0  0  0  0  0  0
    0.3251   -0.3666    1.7068 H   0  0  0  0  0  0  0  0  0  0  0  0
    2.5217   -0.0042    1.1722 H   0  0  0  0  0  0  0  0  0  0  0  0
    1.7261   -0.6984   -1.7295 H   0  0  0  0  0  0  0  0  0  0  0  0
    1.9870   -1.8877   -0.4308 H   0  0  0  0  0  0  0  0  0  0  0  0
    3.6396    0.2143   -2.9064 H   0  0  0  0  0  0  0  0  0  0  0  0
    6.0784    0.2550   -3.2753 H   0  0  0  0  0  0  0  0  0  0  0  0
    7.6088   -0.7862   -1.6267 H   0  0  0  0  0  0  0  0  0  0  0  0
    6.6914   -1.8733    0.4035 H   0  0  0  0  0  0  0  0  0  0  0  0
    4.2533   -1.9228    0.7930 H   0  0  0  0  0  0  0  0  0  0  0  0
  1  2  1  0
  2  3  1  0
  3  4  1  0
  3  5  1  0
  1  6  1  0
  6  7  1  0
  7  8  1  0
  7  9  2  0
  1 10  1  0
 10 11  2  0
 10 12  1  0
 12 13  1  0
 13 14  1  0
 14 15  1  0
 15 16  2  0
 16 17  1  0
 17 18  2  0
 18 19  1  0
 19 20  2  0
 13 21  1  0
 21 22  2  0
 21 23  1  0
 23 24  1  0
 23 25  1  0
 23 26  1  0
 20 15  1  0
  1 27  1  1
  2 28  1  0
  2 29  1  0
  3 30  1  0
  4 31  1  0
  4 32  1  0
  4 33  1  0
  5 34  1  0
  5 35  1  0
  5 36  1  0
  6 37  1  0
  8 38  1  0
  8 39  1  0
  8 40  1  0
 12 41  1  0
 13 42  1  1
 14 43  1  0
 14 44  1  0
 16 45  1  0
 17 46  1  0
 18 47  1  0
 19 48  1  0
 20 49  1  0
M  END
$$$$
