
     RDKit          3D

 22 21  0  0  0  0  0  0  0  0999 V2000
    3.0189   -0.1360    0.1814 C   0  0  0  0  0  0  0  0  0  0  0  0
    1.8463   -0.9652    0.7044 C   0  0  0  0  0  0  0  0  0  0  0  0
    0.5454   -0.7134   -0.0738 C   0  0  0  0  0  0  0  0  0  0  0  0
   -0.0337    0.6913    0.1863 C   0  0  0  0  0  0  0  0  0  0  0  0
   -1.4340    0.9171   -0.4200 C   0  0  1  0  0  0  0  0  0  0  0  0
   -1.4086    0.7855   -1.8808 N   0  0  0  0  0  0  0  0  0  0  0  0
   -2.4747    0.0274    0.2153 C   0  0  0  0  0  0  0  0  0  0  0  0
   -3.0536    0.4075    1.4221 O   0  0  0  0  0  0  0  0  0  0  0  0
   -2.7960   -1.0721   -0.3119 O   0  0  0  0  0  0  0  0  0  0  0  0
    3.9504   -0.4470    0.6997 H   0  0  0  0  0  0  0  0  0  0  0  0
    3.1522   -0.2953   -0.9098 H   0  0  0  0  0  0  0  0  0  0  0  0
    2.8572    0.9434    0.3814 H   0  0  0  0  0  0  0  0  0  0  0  0
    1.6932   -0.7539    1.7850 H   0  0  0  0  0  0  0  0  0  0  0  0
    2.1104   -2.0407    0.6076 H   0  0  0  0  0  0  0  0  0  0  0  0
   -0.1901   -1.4815    0.2461 H   0  0  0  0  0  0  0  0  0  0  0  0
    0.7352   -0.8557   -1.1594 H   0  0  0  0  0  0  0  0  0  0  0  0
   -0.0892    0.8702    1.2830 H   0  0  0  0  0  0  0  0  0  0  0  0
    0.6522    1.4541   -0.2404 H   0  0  0  0  0  0  0  0  0  0  0  0
   -1.7168    1.9672   -0.1837 H   0  0  0  0  0  0  0  0  0  0  0  0
   -1.2885   -0.2172   -2.1517 H   0  0  0  0  0  0  0  0  0  0  0  0
   -2.3343    1.0951   -2.2573 H   0  0  0  0  0  0  0  0  0  0  0  0
   -3.7419   -0.1807    1.8764 H   0  0  0  0  0  0  0  0  0  0  0  0
  1  2  1  0
  2  3  1  0
  3  4  1  0
  4  5  1  0
  5  6  1  0
  5  7  1  0
  7  8  1  0
  7  9  2  0
  1 10  1  0
  1 11  1  0
  1 12  1  0
  2 13  1  0
  2 14  1  0
  3 15  1  0
  3 16  1  0
  4 17  1  0
  4 18  1  0
  5 19  1  6
  6 20  1  0
  6 21  1  0
  8 22  1  0
M  END
$$$$
