
     RDKit          3D

 24 23  0  0  0  0  0  0  0  0999 V2000
   -1.2288   -0.5997    0.5127 C   0  0  2  0  0  0  0  0  0  0  0  0
   -1.1702   -1.6350   -0.4353 O   0  0  0  0  0  0  0  0  0  0  0  0
   -2.6984   -0.3924    0.9226 C   0  0  0  0  0  0  0  0  0  0  0  0
   -2.7933    0.4695    2.0264 O   0  0  0  0  0  0  0  0  0  0  0  0
   -0.6124    0.6929   -0.0826 C   0  0  1  0  0  0  0  0  0  0  0  0
   -0.5527    1.6818    0.9152 O   0  0  0  0  0  0  0  0  0  0  0  0
    0.8006    0.5046   -0.7030 C   0  0  2  0  0  0  0  0  0  0  0  0
    0.7166   -0.3173   -1.8411 O   0  0  0  0  0  0  0  0  0  0  0  0
    1.8545   -0.0387    0.3037 C   0  0  1  0  0  0  0  0  0  0  0  0
    1.6809   -1.4136    0.5457 O   0  0  0  0  0  0  0  0  0  0  0  0
    3.2643    0.2332   -0.1599 C   0  0  0  0  0  0  0  0  0  0  0  0
    4.2098   -0.0718    0.5493 O   0  0  0  0  0  0  0  0  0  0  0  0
   -0.6533   -0.8856    1.4240 H   0  0  0  0  0  0  0  0  0  0  0  0
   -1.2210   -2.4906    0.0660 H   0  0  0  0  0  0  0  0  0  0  0  0
   -3.2954   -0.0199    0.0567 H   0  0  0  0  0  0  0  0  0  0  0  0
   -3.1312   -1.3718    1.2187 H   0  0  0  0  0  0  0  0  0  0  0  0
   -3.0877    1.3530    1.6828 H   0  0  0  0  0  0  0  0  0  0  0  0
   -1.2884    1.0396   -0.9009 H   0  0  0  0  0  0  0  0  0  0  0  0
   -0.5211    2.5604    0.4536 H   0  0  0  0  0  0  0  0  0  0  0  0
    1.1255    1.5233   -1.0255 H   0  0  0  0  0  0  0  0  0  0  0  0
    1.5096   -0.1205   -2.4046 H   0  0  0  0  0  0  0  0  0  0  0  0
    1.7283    0.4966    1.2692 H   0  0  0  0  0  0  0  0  0  0  0  0
    1.9085   -1.9023   -0.2883 H   0  0  0  0  0  0  0  0  0  0  0  0
    3.4553    0.7045   -1.1189 H   0  0  0  0  0  0  0  0  0  0  0  0
  1  2  1  0
  1  3  1  0
  3  4  1  0
  1  5  1  0
  5  6  1  0
  5  7  1  0
  7  8  1  0
  7  9  1  0
  9 10  1  0
  9 11  1  0
 11 12  2  0
  1 13  1  1
  2 14  1  0
  3 15  1  0
  3 16  1  0
  4 17  1  0
  5 18  1  6
  6 19  1  0
  7 20  1  6
  8 21  1  0
  9 22  1  1
 10 23  1  0
 11 24  1  0
M  END
$$$$
