
     RDKit          3D

 54 57  0  0  0  0  0  0  0  0999 V2000
    0.6965    0.8195    0.8150 C   0  0  2  0  0  0  0  0  0  0  0  0
    1.4520    2.0682    1.2542 C   0  0  0  0  0  0  0  0  0  0  0  0
    2.9140    1.6083    1.4016 C   0  0  0  0  0  0  0  0  0  0  0  0
    2.9867    0.1377    0.8893 C   0  0  2  0  0  0  0  0  0  0  0  0
    2.8736   -0.6839    2.0354 O   0  0  0  0  0  0  0  0  0  0  0  0
    4.3122   -0.1481    0.1589 C   0  0  0  0  0  0  0  0  0  0  0  0
    4.8451    0.7326   -0.5029 O   0  0  0  0  0  0  0  0  0  0  0  0
    4.9711   -1.5073    0.2155 C   0  0  0  0  0  0  0  0  0  0  0  0
    6.0936   -1.5654   -0.6246 O   0  0  0  0  0  0  0  0  0  0  0  0
    1.7101    0.0255   -0.0204 C   0  0  2  0  0  0  0  0  0  0  0  0
    1.9996    0.6837   -1.4133 C   0  0  0  0  0  0  0  0  0  0  0  0
    1.1316   -1.4026   -0.2222 C   0  0  0  0  0  0  0  0  0  0  0  0
   -0.2794   -1.3980   -0.8756 C   0  0  2  0  0  0  0  0  0  0  0  0
   -0.1851   -1.1032   -2.2432 O   0  0  0  0  0  0  0  0  0  0  0  0
   -1.2841   -0.4337   -0.1465 C   0  0  1  0  0  0  0  0  0  0  0  0
   -0.6778    0.9901    0.1246 C   0  0  1  0  0  0  0  0  0  0  0  0
   -1.6218    1.8168    1.0244 C   0  0  0  0  0  0  0  0  0  0  0  0
   -3.0149    1.9458    0.4121 C   0  0  2  0  0  0  0  0  0  0  0  0
   -3.8145    2.6759    1.2782 F   0  0  0  0  0  0  0  0  0  0  0  0
   -3.5759    0.5669    0.1334 C   0  0  0  0  0  0  0  0  0  0  0  0
   -4.7716    0.2053    0.6336 C   0  0  0  0  0  0  0  0  0  0  0  0
   -5.3017   -1.1406    0.4220 C   0  0  0  0  0  0  0  0  0  0  0  0
   -6.4311   -1.4563    0.8804 O   0  0  0  0  0  0  0  0  0  0  0  0
   -4.5066   -2.1214   -0.3090 C   0  0  0  0  0  0  0  0  0  0  0  0
   -3.3247   -1.7858   -0.8248 C   0  0  0  0  0  0  0  0  0  0  0  0
   -2.7410   -0.3730   -0.7571 C   0  0  2  0  0  0  0  0  0  0  0  0
   -2.7806    0.1904   -2.1989 C   0  0  0  0  0  0  0  0  0  0  0  0
    0.4976    0.2489    1.7555 H   0  0  0  0  0  0  0  0  0  0  0  0
    1.0582    2.4550    2.2194 H   0  0  0  0  0  0  0  0  0  0  0  0
    1.3690    2.8647    0.4823 H   0  0  0  0  0  0  0  0  0  0  0  0
    3.2348    1.6756    2.4649 H   0  0  0  0  0  0  0  0  0  0  0  0
    3.5609    2.3006    0.8215 H   0  0  0  0  0  0  0  0  0  0  0  0
    2.9273   -1.6349    1.7665 H   0  0  0  0  0  0  0  0  0  0  0  0
    4.2454   -2.2748   -0.1243 H   0  0  0  0  0  0  0  0  0  0  0  0
    5.2649   -1.7431    1.2633 H   0  0  0  0  0  0  0  0  0  0  0  0
    6.8336   -1.1109   -0.1429 H   0  0  0  0  0  0  0  0  0  0  0  0
    2.5042    1.6660   -1.3112 H   0  0  0  0  0  0  0  0  0  0  0  0
    2.6584    0.0243   -2.0174 H   0  0  0  0  0  0  0  0  0  0  0  0
    1.0980    0.8721   -2.0189 H   0  0  0  0  0  0  0  0  0  0  0  0
    1.8308   -2.0146   -0.8317 H   0  0  0  0  0  0  0  0  0  0  0  0
    1.0185   -1.9167    0.7552 H   0  0  0  0  0  0  0  0  0  0  0  0
   -0.6658   -2.4366   -0.7639 H   0  0  0  0  0  0  0  0  0  0  0  0
    0.2068   -1.9001   -2.6873 H   0  0  0  0  0  0  0  0  0  0  0  0
   -1.4191   -0.8939    0.8614 H   0  0  0  0  0  0  0  0  0  0  0  0
   -0.5555    1.5523   -0.8202 H   0  0  0  0  0  0  0  0  0  0  0  0
   -1.7059    1.3432    2.0282 H   0  0  0  0  0  0  0  0  0  0  0  0
   -1.2082    2.8391    1.1631 H   0  0  0  0  0  0  0  0  0  0  0  0
   -2.9493    2.5140   -0.5398 H   0  0  0  0  0  0  0  0  0  0  0  0
   -5.3606    0.8913    1.2291 H   0  0  0  0  0  0  0  0  0  0  0  0
   -4.8842   -3.1282   -0.4396 H   0  0  0  0  0  0  0  0  0  0  0  0
   -2.8070   -2.5402   -1.4027 H   0  0  0  0  0  0  0  0  0  0  0  0
   -2.4228   -0.5492   -2.9444 H   0  0  0  0  0  0  0  0  0  0  0  0
   -2.1778    1.1128   -2.3080 H   0  0  0  0  0  0  0  0  0  0  0  0
   -3.8275    0.4357   -2.4828 H   0  0  0  0  0  0  0  0  0  0  0  0
  1  2  1  0
  2  3  1  0
  3  4  1  0
  4  5  1  1
  4  6  1  0
  6  7  2  0
  6  8  1  0
  8  9  1  0
  4 10  1  0
 10 11  1  6
 10 12  1  0
 12 13  1  0
 13 14  1  0
 13 15  1  0
 15 16  1  0
 16 17  1  0
 17 18  1  0
 18 19  1  0
 18 20  1  0
 20 21  2  0
 21 22  1  0
 22 23  2  0
 22 24  1  0
 24 25  2  0
 25 26  1  0
 26 27  1  6
 10  1  1  0
 26 15  1  0
 16  1  1  0
 26 20  1  0
  1 28  1  1
  2 29  1  0
  2 30  1  0
  3 31  1  0
  3 32  1  0
  5 33  1  0
  8 34  1  0
  8 35  1  0
  9 36  1  0
 11 37  1  0
 11 38  1  0
 11 39  1  0
 12 40  1  0
 12 41  1  0
 13 42  1  6
 14 43  1  0
 15 44  1  1
 16 45  1  6
 17 46  1  0
 17 47  1  0
 18 48  1  6
 21 49  1  0
 24 50  1  0
 25 51  1  0
 27 52  1  0
 27 53  1  0
 27 54  1  0
M  END
$$$$
