
     RDKit          3D

 50 53  0  0  0  0  0  0  0  0999 V2000
    1.6647   -0.4296    0.6403 C   0  0  2  0  0  0  0  0  0  0  0  0
    2.7524   -0.2906    1.6993 C   0  0  0  0  0  0  0  0  0  0  0  0
    4.0473   -0.7251    0.9858 C   0  0  0  0  0  0  0  0  0  0  0  0
    3.7000   -0.9240   -0.5140 C   0  0  1  0  0  0  0  0  0  0  0  0
    4.7444   -0.4264   -1.3164 O   0  0  0  0  0  0  0  0  0  0  0  0
    3.5371   -2.3749   -0.7842 C   0  0  0  0  0  0  0  0  0  0  0  0
    3.4068   -3.5537   -1.0019 C   0  0  0  0  0  0  0  0  0  0  0  0
    2.3723   -0.1172   -0.6873 C   0  0  2  0  0  0  0  0  0  0  0  0
    2.7211    1.4004   -0.8592 C   0  0  0  0  0  0  0  0  0  0  0  0
    1.4343   -0.5579   -1.8409 C   0  0  0  0  0  0  0  0  0  0  0  0
    0.0535    0.1341   -1.7450 C   0  0  0  0  0  0  0  0  0  0  0  0
   -0.6198   -0.0234   -0.3476 C   0  0  2  0  0  0  0  0  0  0  0  0
   -1.9402    0.7941   -0.2367 C   0  0  1  0  0  0  0  0  0  0  0  0
   -2.9520    0.3966   -1.3373 C   0  0  0  0  0  0  0  0  0  0  0  0
   -4.3324    0.9814   -1.0486 C   0  0  0  0  0  0  0  0  0  0  0  0
   -4.8688    0.4220    0.2726 C   0  0  2  0  0  0  0  0  0  0  0  0
   -6.0511    1.0884    0.6272 O   0  0  0  0  0  0  0  0  0  0  0  0
   -3.8630    0.5810    1.3832 C   0  0  0  0  0  0  0  0  0  0  0  0
   -2.5300    0.6488    1.1676 C   0  0  0  0  0  0  0  0  0  0  0  0
   -1.6055    0.8354    2.3492 C   0  0  0  0  0  0  0  0  0  0  0  0
   -0.3155    0.0330    2.1691 C   0  0  0  0  0  0  0  0  0  0  0  0
    0.3492    0.3571    0.8178 C   0  0  1  0  0  0  0  0  0  0  0  0
    1.3808   -1.5106    0.6430 H   0  0  0  0  0  0  0  0  0  0  0  0
    2.8306    0.7637    2.0442 H   0  0  0  0  0  0  0  0  0  0  0  0
    2.5427   -0.9442    2.5740 H   0  0  0  0  0  0  0  0  0  0  0  0
    4.8133    0.0729    1.1052 H   0  0  0  0  0  0  0  0  0  0  0  0
    4.4581   -1.6490    1.4521 H   0  0  0  0  0  0  0  0  0  0  0  0
    4.4631   -0.5240   -2.2644 H   0  0  0  0  0  0  0  0  0  0  0  0
    3.2916   -4.5880   -1.1930 H   0  0  0  0  0  0  0  0  0  0  0  0
    3.4093    1.7605   -0.0672 H   0  0  0  0  0  0  0  0  0  0  0  0
    1.8357    2.0616   -0.8451 H   0  0  0  0  0  0  0  0  0  0  0  0
    3.2191    1.5704   -1.8372 H   0  0  0  0  0  0  0  0  0  0  0  0
    1.2615   -1.6550   -1.8129 H   0  0  0  0  0  0  0  0  0  0  0  0
    1.8995   -0.3226   -2.8226 H   0  0  0  0  0  0  0  0  0  0  0  0
   -0.5931   -0.3302   -2.5194 H   0  0  0  0  0  0  0  0  0  0  0  0
    0.1408    1.2083   -2.0097 H   0  0  0  0  0  0  0  0  0  0  0  0
   -0.8805   -1.1018   -0.2377 H   0  0  0  0  0  0  0  0  0  0  0  0
   -1.6969    1.8713   -0.3769 H   0  0  0  0  0  0  0  0  0  0  0  0
   -3.0297   -0.7112   -1.4102 H   0  0  0  0  0  0  0  0  0  0  0  0
   -2.6131    0.7871   -2.3206 H   0  0  0  0  0  0  0  0  0  0  0  0
   -4.2664    2.0911   -0.9962 H   0  0  0  0  0  0  0  0  0  0  0  0
   -5.0264    0.7130   -1.8745 H   0  0  0  0  0  0  0  0  0  0  0  0
   -5.0715   -0.6681    0.1562 H   0  0  0  0  0  0  0  0  0  0  0  0
   -6.7652    0.7407    0.0311 H   0  0  0  0  0  0  0  0  0  0  0  0
   -4.2398    0.5504    2.4024 H   0  0  0  0  0  0  0  0  0  0  0  0
   -2.0891    0.5108    3.2968 H   0  0  0  0  0  0  0  0  0  0  0  0
   -1.3616    1.9157    2.4447 H   0  0  0  0  0  0  0  0  0  0  0  0
    0.3723    0.2909    3.0030 H   0  0  0  0  0  0  0  0  0  0  0  0
   -0.5427   -1.0543    2.2358 H   0  0  0  0  0  0  0  0  0  0  0  0
    0.5529    1.4481    0.8062 H   0  0  0  0  0  0  0  0  0  0  0  0
  1  2  1  0
  2  3  1  0
  3  4  1  0
  4  5  1  0
  4  6  1  1
  6  7  3  0
  4  8  1  0
  8  9  1  6
  8 10  1  0
 10 11  1  0
 11 12  1  0
 12 13  1  0
 13 14  1  0
 14 15  1  0
 15 16  1  0
 16 17  1  0
 16 18  1  0
 18 19  2  0
 19 20  1  0
 20 21  1  0
 21 22  1  0
  8  1  1  0
 22 12  1  0
 22  1  1  0
 19 13  1  0
  1 23  1  6
  2 24  1  0
  2 25  1  0
  3 26  1  0
  3 27  1  0
  5 28  1  0
  7 29  1  0
  9 30  1  0
  9 31  1  0
  9 32  1  0
 10 33  1  0
 10 34  1  0
 11 35  1  0
 11 36  1  0
 12 37  1  1
 13 38  1  6
 14 39  1  0
 14 40  1  0
 15 41  1  0
 15 42  1  0
 16 43  1  6
 17 44  1  0
 18 45  1  0
 20 46  1  0
 20 47  1  0
 21 48  1  0
 21 49  1  0
 22 50  1  1
M  END
$$$$
