
     RDKit          3D

 55 58  0  0  0  0  0  0  0  0999 V2000
    5.5185   -1.9689   -1.3506 C   0  0  0  0  0  0  0  0  0  0  0  0
    6.1550   -0.6393   -1.7449 C   0  0  0  0  0  0  0  0  0  0  0  0
    6.2785    0.2773   -0.5491 C   0  0  0  0  0  0  0  0  0  0  0  0
    7.5182    0.3709    0.1093 C   0  0  0  0  0  0  0  0  0  0  0  0
    7.6615    1.1679    1.2464 C   0  0  0  0  0  0  0  0  0  0  0  0
    6.5694    1.8755    1.7463 C   0  0  0  0  0  0  0  0  0  0  0  0
    5.3281    1.7835    1.1151 C   0  0  0  0  0  0  0  0  0  0  0  0
    5.1631    0.9789   -0.0263 C   0  0  0  0  0  0  0  0  0  0  0  0
    3.8768    0.9049   -0.6652 N   0  0  0  0  0  0  0  0  0  0  0  0
    2.6577    0.6732    0.0511 C   0  0  0  0  0  0  0  0  0  0  0  0
    2.6822    0.4343    1.2897 O   0  0  0  0  0  0  0  0  0  0  0  0
    1.4415    0.7416   -0.6403 O   0  0  0  0  0  0  0  0  0  0  0  0
    0.2141    0.2506   -0.1716 C   0  0  0  0  0  0  0  0  0  0  0  0
   -0.9665    0.8708   -0.6167 C   0  0  0  0  0  0  0  0  0  0  0  0
   -2.1979    0.3874   -0.1663 C   0  0  0  0  0  0  0  0  0  0  0  0
   -2.2700   -0.6833    0.6813 C   0  0  0  0  0  0  0  0  0  0  0  0
   -1.1205   -1.3371    1.1297 C   0  0  0  0  0  0  0  0  0  0  0  0
    0.1290   -0.8677    0.6952 C   0  0  0  0  0  0  0  0  0  0  0  0
   -3.6128   -1.0129    0.9916 N   0  0  0  0  0  0  0  0  0  0  0  0
   -4.0245   -1.9581    2.0250 C   0  0  0  0  0  0  0  0  0  0  0  0
   -4.5097   -0.1016    0.2627 C   0  0  0  0  0  0  0  0  0  0  0  0
   -3.5744    0.8903   -0.4930 C   0  0  0  0  0  0  0  0  0  0  0  0
   -3.7640    2.3396   -0.0112 C   0  0  0  0  0  0  0  0  0  0  0  0
   -3.9226    0.7234   -1.9750 C   0  0  0  0  0  0  0  0  0  0  0  0
   -5.2783    0.0411   -1.9673 C   0  0  0  0  0  0  0  0  0  0  0  0
   -5.3223   -0.8046   -0.7642 N   0  0  0  0  0  4  0  0  0  0  0  0
   -6.7093   -1.0470   -0.3300 C   0  0  0  0  0  0  0  0  0  0  0  0
   -4.7602   -2.0047   -1.0743 O   0  0  0  0  0  1  0  0  0  0  0  0
    5.4614   -2.6317   -2.2396 H   0  0  0  0  0  0  0  0  0  0  0  0
    4.4904   -1.8101   -0.9620 H   0  0  0  0  0  0  0  0  0  0  0  0
    6.1304   -2.4712   -0.5710 H   0  0  0  0  0  0  0  0  0  0  0  0
    5.5592   -0.1606   -2.5486 H   0  0  0  0  0  0  0  0  0  0  0  0
    7.1569   -0.8418   -2.1828 H   0  0  0  0  0  0  0  0  0  0  0  0
    8.3773   -0.1781   -0.2562 H   0  0  0  0  0  0  0  0  0  0  0  0
    8.6216    1.2359    1.7415 H   0  0  0  0  0  0  0  0  0  0  0  0
    6.6848    2.4978    2.6244 H   0  0  0  0  0  0  0  0  0  0  0  0
    4.4956    2.3527    1.5086 H   0  0  0  0  0  0  0  0  0  0  0  0
    3.8183    0.9722   -1.7049 H   0  0  0  0  0  0  0  0  0  0  0  0
   -0.9231    1.7148   -1.2931 H   0  0  0  0  0  0  0  0  0  0  0  0
   -1.1853   -2.1956    1.7850 H   0  0  0  0  0  0  0  0  0  0  0  0
    1.0186   -1.3962    1.0086 H   0  0  0  0  0  0  0  0  0  0  0  0
   -5.1161   -1.8898    2.2047 H   0  0  0  0  0  0  0  0  0  0  0  0
   -3.7714   -2.9907    1.7068 H   0  0  0  0  0  0  0  0  0  0  0  0
   -3.5003   -1.7258    2.9756 H   0  0  0  0  0  0  0  0  0  0  0  0
   -5.1520    0.4415    0.9955 H   0  0  0  0  0  0  0  0  0  0  0  0
   -3.0798    3.0225   -0.5587 H   0  0  0  0  0  0  0  0  0  0  0  0
   -4.8098    2.6713   -0.1883 H   0  0  0  0  0  0  0  0  0  0  0  0
   -3.5468    2.4191    1.0759 H   0  0  0  0  0  0  0  0  0  0  0  0
   -3.9642    1.6907   -2.5227 H   0  0  0  0  0  0  0  0  0  0  0  0
   -3.1918    0.0599   -2.4900 H   0  0  0  0  0  0  0  0  0  0  0  0
   -5.4300   -0.5537   -2.8968 H   0  0  0  0  0  0  0  0  0  0  0  0
   -6.0652    0.8304   -1.9291 H   0  0  0  0  0  0  0  0  0  0  0  0
   -7.2118   -0.0968   -0.0424 H   0  0  0  0  0  0  0  0  0  0  0  0
   -6.7325   -1.7353    0.5405 H   0  0  0  0  0  0  0  0  0  0  0  0
   -7.2949   -1.5177   -1.1505 H   0  0  0  0  0  0  0  0  0  0  0  0
  1  2  1  0
  2  3  1  0
  3  4  2  0
  4  5  1  0
  5  6  2  0
  6  7  1  0
  7  8  2  0
  8  9  1  0
  9 10  1  0
 10 11  2  0
 10 12  1  0
 12 13  1  0
 13 14  2  0
 14 15  1  0
 15 16  2  0
 16 17  1  0
 17 18  2  0
 16 19  1  0
 19 20  1  0
 19 21  1  0
 21 22  1  0
 22 23  1  0
 22 24  1  0
 24 25  1  0
 25 26  1  0
 26 27  1  0
 26 28  1  0
  8  3  1  0
 18 13  1  0
 26 21  1  0
 22 15  1  0
  1 29  1  0
  1 30  1  0
  1 31  1  0
  2 32  1  0
  2 33  1  0
  4 34  1  0
  5 35  1  0
  6 36  1  0
  7 37  1  0
  9 38  1  0
 14 39  1  0
 17 40  1  0
 18 41  1  0
 20 42  1  0
 20 43  1  0
 20 44  1  0
 21 45  1  0
 23 46  1  0
 23 47  1  0
 23 48  1  0
 24 49  1  0
 24 50  1  0
 25 51  1  0
 25 52  1  0
 27 53  1  0
 27 54  1  0
 27 55  1  0
M  CHG  2  26   1  28  -1
M  END
$$$$
