
     RDKit          3D

141144  0  0  0  0  0  0  0  0999 V2000
    4.2672   -4.2828    0.1883 C   0  0  0  0  0  0  0  0  0  0  0  0
    4.9222   -3.3438    1.2004 C   0  0  0  0  0  0  0  0  0  0  0  0
    4.1256   -2.0310    1.3931 C   0  0  1  0  0  0  0  0  0  0  0  0
    2.8562   -2.3502    1.9835 O   0  0  0  0  0  0  0  0  0  0  0  0
    1.6684   -2.6652    1.3028 C   0  0  0  0  0  0  0  0  0  0  0  0
    0.8527   -3.4468    1.8590 O   0  0  0  0  0  0  0  0  0  0  0  0
    1.2519   -1.9917    0.0208 C   0  0  0  0  0  0  0  0  0  0  0  0
    0.4268   -0.7231    0.3241 C   0  0  1  0  0  0  0  0  0  0  0  0
    1.1972    0.1628    1.0830 O   0  0  0  0  0  0  0  0  0  0  0  0
   -0.0780   -0.0147   -0.9622 C   0  0  2  0  0  0  0  0  0  0  0  0
    1.0689    0.4218   -1.8999 C   0  0  0  0  0  0  0  0  0  0  0  0
   -1.0943    1.1487   -0.6835 C   0  0  1  0  0  0  0  0  0  0  0  0
   -2.1242    0.6944    0.1888 O   0  0  0  0  0  0  0  0  0  0  0  0
   -3.2477    0.1912   -0.5145 C   0  0  2  0  0  0  0  0  0  0  0  0
   -3.9942    1.2813   -1.0225 O   0  0  0  0  0  0  0  0  0  0  0  0
   -5.1430    0.8149   -1.6960 C   0  0  2  0  0  0  0  0  0  0  0  0
   -5.6748    1.9499   -2.5729 C   0  0  0  0  0  0  0  0  0  0  0  0
   -6.2083    0.3227   -0.6776 C   0  0  1  0  0  0  0  0  0  0  0  0
   -6.9191   -0.7611   -1.2648 O   0  0  0  0  0  0  0  0  0  0  0  0
   -8.2437   -0.4038   -1.6320 C   0  0  1  0  0  0  0  0  0  0  0  0
   -8.7745   -1.3681   -2.7062 C   0  0  0  0  0  0  0  0  0  0  0  0
   -9.0116   -2.7799   -2.1372 C   0  0  1  0  0  0  0  0  0  0  0  0
   -9.7322   -3.6371   -3.1988 C   0  0  0  0  0  0  0  0  0  0  0  0
   -7.7585   -3.3547   -1.8369 O   0  0  0  0  0  0  0  0  0  0  0  0
   -9.8780   -2.6536   -0.8589 C   0  0  1  0  0  0  0  0  0  0  0  0
   -9.9955   -3.9099   -0.2353 O   0  0  0  0  0  0  0  0  0  0  0  0
   -9.2406   -1.6314    0.1133 C   0  0  2  0  0  0  0  0  0  0  0  0
  -10.1092   -1.4595    1.3619 C   0  0  0  0  0  0  0  0  0  0  0  0
   -9.1047   -0.3601   -0.5031 O   0  0  0  0  0  0  0  0  0  0  0  0
   -5.5485   -0.1844    0.6495 C   0  0  1  0  0  0  0  0  0  0  0  0
   -4.0882   -0.6876    0.4564 C   0  0  1  0  0  0  0  0  0  0  0  0
   -4.1081   -2.0054   -0.0385 O   0  0  0  0  0  0  0  0  0  0  0  0
   -5.6469    0.7586    1.8032 N   0  0  0  0  0  0  0  0  0  0  0  0
   -7.0068    0.8225    2.3665 C   0  0  0  0  0  0  0  0  0  0  0  0
   -5.1100    2.1106    1.5733 C   0  0  0  0  0  0  0  0  0  0  0  0
   -0.4531    2.4768   -0.1151 C   0  0  1  0  0  0  0  0  0  0  0  0
   -0.8586    3.7066   -0.9741 C   0  0  0  0  0  0  0  0  0  0  0  0
   -2.3447    3.9202   -1.0706 C   0  0  0  0  0  0  0  0  0  0  0  0
   -2.9796    4.3567   -0.1247 O   0  0  0  0  0  0  0  0  0  0  0  0
   -0.7176    2.7079    1.4051 C   0  0  0  0  0  0  0  0  0  0  0  0
    0.1542    3.8411    2.0375 C   0  0  1  0  0  0  0  0  0  0  0  0
   -0.7115    5.0523    2.4261 C   0  0  0  0  0  0  0  0  0  0  0  0
    0.9345    3.3268    3.2415 C   0  0  0  0  0  0  0  0  0  0  0  0
    0.4729    3.5158    4.4002 O   0  0  0  0  0  0  0  0  0  0  0  0
    2.1584    2.4977    3.1222 C   0  0  0  0  0  0  0  0  0  0  0  0
    2.8343    2.3251    1.9747 C   0  0  0  0  0  0  0  0  0  0  0  0
    3.8924    1.2965    1.7417 C   0  0  0  0  0  0  0  0  0  0  0  0
    4.6873    1.4539    0.4713 C   0  0  0  0  0  0  0  0  0  0  0  0
    4.0340    0.2240    2.5658 C   0  0  0  0  0  0  0  0  0  0  0  0
    4.8609   -1.0389    2.3421 C   0  0  2  0  0  0  0  0  0  0  0  0
    6.3520   -0.7754    2.0182 C   0  0  0  0  0  0  0  0  0  0  0  0
    6.5608   -0.7034    0.6211 O   0  0  0  0  0  0  0  0  0  0  0  0
    7.9408   -0.6516    0.3190 C   0  0  2  0  0  0  0  0  0  0  0  0
    8.5035    0.5487    0.8210 O   0  0  0  0  0  0  0  0  0  0  0  0
    9.9234    0.4855    0.7891 C   0  0  2  0  0  0  0  0  0  0  0  0
   10.4648    1.8778    1.1176 C   0  0  0  0  0  0  0  0  0  0  0  0
   10.4764   -0.0164   -0.5834 C   0  0  1  0  0  0  0  0  0  0  0  0
   10.9065   -1.3492   -0.4484 O   0  0  0  0  0  0  0  0  0  0  0  0
    9.3790    0.0794   -1.6614 C   0  0  1  0  0  0  0  0  0  0  0  0
    9.8821   -0.4248   -2.8892 O   0  0  0  0  0  0  0  0  0  0  0  0
    9.2717    0.2270   -3.9819 C   0  0  0  0  0  0  0  0  0  0  0  0
    8.1061   -0.6935   -1.2200 C   0  0  1  0  0  0  0  0  0  0  0  0
    8.1977   -2.0468   -1.6418 O   0  0  0  0  0  0  0  0  0  0  0  0
    6.9778   -2.4803   -2.2023 C   0  0  0  0  0  0  0  0  0  0  0  0
    4.9525   -5.1294   -0.0278 H   0  0  0  0  0  0  0  0  0  0  0  0
    4.0573   -3.7478   -0.7622 H   0  0  0  0  0  0  0  0  0  0  0  0
    3.3242   -4.7018    0.5952 H   0  0  0  0  0  0  0  0  0  0  0  0
    5.0175   -3.8702    2.1749 H   0  0  0  0  0  0  0  0  0  0  0  0
    5.9458   -3.1327    0.8320 H   0  0  0  0  0  0  0  0  0  0  0  0
    4.0030   -1.5377    0.4124 H   0  0  0  0  0  0  0  0  0  0  0  0
    0.6278   -2.6999   -0.5666 H   0  0  0  0  0  0  0  0  0  0  0  0
    2.1315   -1.7533   -0.6029 H   0  0  0  0  0  0  0  0  0  0  0  0
   -0.4711   -1.0422    0.9063 H   0  0  0  0  0  0  0  0  0  0  0  0
    1.0770   -0.0872    2.0366 H   0  0  0  0  0  0  0  0  0  0  0  0
   -0.6454   -0.7836   -1.5316 H   0  0  0  0  0  0  0  0  0  0  0  0
    1.8958    0.9074   -1.3408 H   0  0  0  0  0  0  0  0  0  0  0  0
    0.6966    1.1245   -2.6751 H   0  0  0  0  0  0  0  0  0  0  0  0
    1.4861   -0.4593   -2.4312 H   0  0  0  0  0  0  0  0  0  0  0  0
   -1.5096    1.3980   -1.6909 H   0  0  0  0  0  0  0  0  0  0  0  0
   -2.9042   -0.4503   -1.3627 H   0  0  0  0  0  0  0  0  0  0  0  0
   -4.8782   -0.0162   -2.3940 H   0  0  0  0  0  0  0  0  0  0  0  0
   -4.8668    2.3112   -3.2441 H   0  0  0  0  0  0  0  0  0  0  0  0
   -6.5105    1.5947   -3.2095 H   0  0  0  0  0  0  0  0  0  0  0  0
   -6.0180    2.8020   -1.9481 H   0  0  0  0  0  0  0  0  0  0  0  0
   -6.8802    1.1713   -0.4185 H   0  0  0  0  0  0  0  0  0  0  0  0
   -8.2631    0.6022   -2.1068 H   0  0  0  0  0  0  0  0  0  0  0  0
   -9.7301   -0.9567   -3.1025 H   0  0  0  0  0  0  0  0  0  0  0  0
   -8.0520   -1.4130   -3.5511 H   0  0  0  0  0  0  0  0  0  0  0  0
   -9.9220   -4.6616   -2.8136 H   0  0  0  0  0  0  0  0  0  0  0  0
  -10.7079   -3.1841   -3.4780 H   0  0  0  0  0  0  0  0  0  0  0  0
   -9.1061   -3.7211   -4.1129 H   0  0  0  0  0  0  0  0  0  0  0  0
   -7.9053   -4.2922   -1.5455 H   0  0  0  0  0  0  0  0  0  0  0  0
  -10.8864   -2.2738   -1.1578 H   0  0  0  0  0  0  0  0  0  0  0  0
  -10.9085   -3.9633    0.1510 H   0  0  0  0  0  0  0  0  0  0  0  0
   -8.2510   -2.0071    0.4559 H   0  0  0  0  0  0  0  0  0  0  0  0
  -11.1425   -1.1641    1.0800 H   0  0  0  0  0  0  0  0  0  0  0  0
  -10.1447   -2.4027    1.9470 H   0  0  0  0  0  0  0  0  0  0  0  0
   -9.6850   -0.6669    2.0123 H   0  0  0  0  0  0  0  0  0  0  0  0
   -6.1138   -1.0944    0.9531 H   0  0  0  0  0  0  0  0  0  0  0  0
   -3.5906   -0.6941    1.4568 H   0  0  0  0  0  0  0  0  0  0  0  0
   -4.2868   -2.6063    0.7318 H   0  0  0  0  0  0  0  0  0  0  0  0
   -7.7222    1.2938    1.6605 H   0  0  0  0  0  0  0  0  0  0  0  0
   -7.0024    1.4092    3.3101 H   0  0  0  0  0  0  0  0  0  0  0  0
   -7.3643   -0.1952    2.6294 H   0  0  0  0  0  0  0  0  0  0  0  0
   -5.6280    2.6315    0.7423 H   0  0  0  0  0  0  0  0  0  0  0  0
   -4.0245    2.0611    1.3756 H   0  0  0  0  0  0  0  0  0  0  0  0
   -5.2203    2.7292    2.4898 H   0  0  0  0  0  0  0  0  0  0  0  0
    0.6458    2.4055   -0.2189 H   0  0  0  0  0  0  0  0  0  0  0  0
   -0.4667    3.5562   -2.0036 H   0  0  0  0  0  0  0  0  0  0  0  0
   -0.3802    4.6348   -0.6009 H   0  0  0  0  0  0  0  0  0  0  0  0
   -2.8570    3.7133   -2.0044 H   0  0  0  0  0  0  0  0  0  0  0  0
   -1.7955    2.9083    1.5704 H   0  0  0  0  0  0  0  0  0  0  0  0
   -0.5328    1.7557    1.9432 H   0  0  0  0  0  0  0  0  0  0  0  0
    0.8792    4.2347    1.2986 H   0  0  0  0  0  0  0  0  0  0  0  0
   -1.1969    5.4864    1.5283 H   0  0  0  0  0  0  0  0  0  0  0  0
   -0.0798    5.8423    2.8863 H   0  0  0  0  0  0  0  0  0  0  0  0
   -1.5029    4.7589    3.1492 H   0  0  0  0  0  0  0  0  0  0  0  0
    2.4803    1.9971    4.0236 H   0  0  0  0  0  0  0  0  0  0  0  0
    2.5582    2.9140    1.1156 H   0  0  0  0  0  0  0  0  0  0  0  0
    5.7531    1.6367    0.7135 H   0  0  0  0  0  0  0  0  0  0  0  0
    4.3513    2.3324   -0.1185 H   0  0  0  0  0  0  0  0  0  0  0  0
    4.5641    0.5724   -0.1866 H   0  0  0  0  0  0  0  0  0  0  0  0
    3.4128    0.1611    3.4469 H   0  0  0  0  0  0  0  0  0  0  0  0
    4.8765   -1.5438    3.3359 H   0  0  0  0  0  0  0  0  0  0  0  0
    6.6755    0.1662    2.5160 H   0  0  0  0  0  0  0  0  0  0  0  0
    6.9481   -1.6083    2.4593 H   0  0  0  0  0  0  0  0  0  0  0  0
    8.4499   -1.5465    0.7582 H   0  0  0  0  0  0  0  0  0  0  0  0
   10.2723   -0.1903    1.6037 H   0  0  0  0  0  0  0  0  0  0  0  0
   10.0628    2.2175    2.0959 H   0  0  0  0  0  0  0  0  0  0  0  0
   10.1595    2.6050    0.3349 H   0  0  0  0  0  0  0  0  0  0  0  0
   11.5736    1.8557    1.1840 H   0  0  0  0  0  0  0  0  0  0  0  0
   11.3413    0.6138   -0.9031 H   0  0  0  0  0  0  0  0  0  0  0  0
   11.5466   -1.5267   -1.1863 H   0  0  0  0  0  0  0  0  0  0  0  0
    9.1247    1.1667   -1.7355 H   0  0  0  0  0  0  0  0  0  0  0  0
    9.6162   -0.2562   -4.9189 H   0  0  0  0  0  0  0  0  0  0  0  0
    8.1638    0.1386   -3.9458 H   0  0  0  0  0  0  0  0  0  0  0  0
    9.5746    1.2964   -4.0225 H   0  0  0  0  0  0  0  0  0  0  0  0
    7.2453   -0.1477   -1.6828 H   0  0  0  0  0  0  0  0  0  0  0  0
    6.1245   -2.3104   -1.5101 H   0  0  0  0  0  0  0  0  0  0  0  0
    6.7919   -1.9706   -3.1727 H   0  0  0  0  0  0  0  0  0  0  0  0
    7.0431   -3.5703   -2.3965 H   0  0  0  0  0  0  0  0  0  0  0  0
  1  2  1  0
  2  3  1  0
  3  4  1  0
  4  5  1  0
  5  6  2  0
  5  7  1  0
  7  8  1  0
  8  9  1  0
  8 10  1  0
 10 11  1  0
 10 12  1  0
 12 13  1  0
 13 14  1  0
 14 15  1  0
 15 16  1  0
 16 17  1  0
 16 18  1  0
 18 19  1  0
 19 20  1  0
 20 21  1  0
 21 22  1  0
 22 23  1  0
 22 24  1  1
 22 25  1  0
 25 26  1  0
 25 27  1  0
 27 28  1  0
 27 29  1  0
 18 30  1  0
 30 31  1  0
 31 32  1  0
 30 33  1  0
 33 34  1  0
 33 35  1  0
 12 36  1  0
 36 37  1  0
 37 38  1  0
 38 39  2  0
 36 40  1  0
 40 41  1  0
 41 42  1  0
 41 43  1  0
 43 44  2  0
 43 45  1  0
 45 46  2  0
 46 47  1  0
 47 48  1  0
 47 49  2  0
 49 50  1  0
 50 51  1  0
 51 52  1  0
 52 53  1  0
 53 54  1  0
 54 55  1  0
 55 56  1  0
 55 57  1  0
 57 58  1  0
 57 59  1  0
 59 60  1  0
 60 61  1  0
 59 62  1  0
 62 63  1  0
 63 64  1  0
 50  3  1  0
 62 53  1  0
 31 14  1  0
 29 20  1  0
  1 65  1  0
  1 66  1  0
  1 67  1  0
  2 68  1  0
  2 69  1  0
  3 70  1  6
  7 71  1  0
  7 72  1  0
  8 73  1  1
  9 74  1  0
 10 75  1  6
 11 76  1  0
 11 77  1  0
 11 78  1  0
 12 79  1  6
 14 80  1  6
 16 81  1  6
 17 82  1  0
 17 83  1  0
 17 84  1  0
 18 85  1  1
 20 86  1  6
 21 87  1  0
 21 88  1  0
 23 89  1  0
 23 90  1  0
 23 91  1  0
 24 92  1  0
 25 93  1  6
 26 94  1  0
 27 95  1  1
 28 96  1  0
 28 97  1  0
 28 98  1  0
 30 99  1  1
 31100  1  1
 32101  1  0
 34102  1  0
 34103  1  0
 34104  1  0
 35105  1  0
 35106  1  0
 35107  1  0
 36108  1  1
 37109  1  0
 37110  1  0
 38111  1  0
 40112  1  0
 40113  1  0
 41114  1  6
 42115  1  0
 42116  1  0
 42117  1  0
 45118  1  0
 46119  1  0
 48120  1  0
 48121  1  0
 48122  1  0
 49123  1  0
 50124  1  1
 51125  1  0
 51126  1  0
 53127  1  1
 55128  1  1
 56129  1  0
 56130  1  0
 56131  1  0
 57132  1  6
 58133  1  0
 59134  1  6
 61135  1  0
 61136  1  0
 61137  1  0
 62138  1  6
 64139  1  0
 64140  1  0
 64141  1  0
M  END
$$$$
