
     RDKit          3D

 49 52  0  0  0  0  0  0  0  0999 V2000
   -2.2016   -0.7522   -0.4727 C   0  0  2  0  0  0  0  0  0  0  0  0
   -3.2611   -1.0042   -1.5468 C   0  0  0  0  0  0  0  0  0  0  0  0
   -4.5520   -1.1919   -0.7300 C   0  0  0  0  0  0  0  0  0  0  0  0
   -4.2468   -0.5298    0.5797 C   0  0  0  0  0  0  0  0  0  0  0  0
   -5.0395   -0.4675    1.5069 O   0  0  0  0  0  0  0  0  0  0  0  0
   -2.8970    0.1075    0.5881 C   0  0  2  0  0  0  0  0  0  0  0  0
   -3.0959    1.5986    0.1971 C   0  0  0  0  0  0  0  0  0  0  0  0
   -2.0870   -0.0248    1.8914 C   0  0  0  0  0  0  0  0  0  0  0  0
   -0.6292    0.4549    1.6741 C   0  0  0  0  0  0  0  0  0  0  0  0
    0.0762   -0.1825    0.4246 C   0  0  1  0  0  0  0  0  0  0  0  0
   -0.8198   -0.1929   -0.8562 C   0  0  1  0  0  0  0  0  0  0  0  0
   -0.1613   -1.0695   -1.9304 C   0  0  0  0  0  0  0  0  0  0  0  0
    1.2960   -0.7567   -2.1231 C   0  0  0  0  0  0  0  0  0  0  0  0
    2.0808   -0.2126   -1.1657 C   0  0  0  0  0  0  0  0  0  0  0  0
    3.5632   -0.0562   -1.4513 C   0  0  0  0  0  0  0  0  0  0  0  0
    4.3988   -0.4414   -0.2279 C   0  0  1  0  0  0  0  0  0  0  0  0
    5.7499   -0.1682   -0.4916 O   0  0  0  0  0  0  0  0  0  0  0  0
    3.9397    0.3430    1.0081 C   0  0  0  0  0  0  0  0  0  0  0  0
    2.4569    0.0768    1.3081 C   0  0  0  0  0  0  0  0  0  0  0  0
    1.5043    0.4117    0.1178 C   0  0  2  0  0  0  0  0  0  0  0  0
    1.4489    1.9524   -0.0774 C   0  0  0  0  0  0  0  0  0  0  0  0
   -2.0111   -1.7643   -0.0325 H   0  0  0  0  0  0  0  0  0  0  0  0
   -3.0295   -1.9128   -2.1440 H   0  0  0  0  0  0  0  0  0  0  0  0
   -3.3472   -0.1282   -2.2256 H   0  0  0  0  0  0  0  0  0  0  0  0
   -4.7569   -2.2714   -0.5644 H   0  0  0  0  0  0  0  0  0  0  0  0
   -5.4166   -0.7048   -1.2292 H   0  0  0  0  0  0  0  0  0  0  0  0
   -3.6655    1.6984   -0.7510 H   0  0  0  0  0  0  0  0  0  0  0  0
   -3.6707    2.1214    0.9916 H   0  0  0  0  0  0  0  0  0  0  0  0
   -2.1418    2.1441    0.0676 H   0  0  0  0  0  0  0  0  0  0  0  0
   -2.5592    0.5779    2.6977 H   0  0  0  0  0  0  0  0  0  0  0  0
   -2.0765   -1.0837    2.2334 H   0  0  0  0  0  0  0  0  0  0  0  0
   -0.0565    0.1981    2.5898 H   0  0  0  0  0  0  0  0  0  0  0  0
   -0.6364    1.5586    1.6080 H   0  0  0  0  0  0  0  0  0  0  0  0
    0.2275   -1.2535    0.6967 H   0  0  0  0  0  0  0  0  0  0  0  0
   -0.9370    0.8239   -1.2785 H   0  0  0  0  0  0  0  0  0  0  0  0
   -0.6868   -0.9249   -2.8989 H   0  0  0  0  0  0  0  0  0  0  0  0
   -0.2425   -2.1437   -1.6551 H   0  0  0  0  0  0  0  0  0  0  0  0
    1.7479   -1.1237   -3.0406 H   0  0  0  0  0  0  0  0  0  0  0  0
    3.8803   -0.7009   -2.3009 H   0  0  0  0  0  0  0  0  0  0  0  0
    3.7747    0.9947   -1.7421 H   0  0  0  0  0  0  0  0  0  0  0  0
    4.2672   -1.5340   -0.0416 H   0  0  0  0  0  0  0  0  0  0  0  0
    6.2804   -0.6705    0.1810 H   0  0  0  0  0  0  0  0  0  0  0  0
    4.1179    1.4299    0.8628 H   0  0  0  0  0  0  0  0  0  0  0  0
    4.5424    0.0238    1.8861 H   0  0  0  0  0  0  0  0  0  0  0  0
    2.1786    0.6704    2.2052 H   0  0  0  0  0  0  0  0  0  0  0  0
    2.3541   -0.9963    1.5839 H   0  0  0  0  0  0  0  0  0  0  0  0
    2.4193    2.3528   -0.4332 H   0  0  0  0  0  0  0  0  0  0  0  0
    0.6909    2.2461   -0.8293 H   0  0  0  0  0  0  0  0  0  0  0  0
    1.2294    2.4779    0.8739 H   0  0  0  0  0  0  0  0  0  0  0  0
  1  2  1  0
  2  3  1  0
  3  4  1  0
  4  5  2  0
  4  6  1  0
  6  7  1  6
  6  8  1  0
  8  9  1  0
  9 10  1  0
 10 11  1  0
 11 12  1  0
 12 13  1  0
 13 14  2  0
 14 15  1  0
 15 16  1  0
 16 17  1  0
 16 18  1  0
 18 19  1  0
 19 20  1  0
 20 21  1  6
  6  1  1  0
 20 10  1  0
 11  1  1  0
 20 14  1  0
  1 22  1  1
  2 23  1  0
  2 24  1  0
  3 25  1  0
  3 26  1  0
  7 27  1  0
  7 28  1  0
  7 29  1  0
  8 30  1  0
  8 31  1  0
  9 32  1  0
  9 33  1  0
 10 34  1  1
 11 35  1  6
 12 36  1  0
 12 37  1  0
 13 38  1  0
 15 39  1  0
 15 40  1  0
 16 41  1  1
 17 42  1  0
 18 43  1  0
 18 44  1  0
 19 45  1  0
 19 46  1  0
 21 47  1  0
 21 48  1  0
 21 49  1  0
M  END
$$$$
