
     RDKit          3D

 92 92  0  0  0  0  0  0  0  0999 V2000
    6.6272   -2.7335    3.1308 C   0  0  0  0  0  0  0  0  0  0  0  0
    5.3569   -2.2826    2.7155 O   0  0  0  0  0  0  0  0  0  0  0  0
    4.6325   -3.3336    2.1020 C   0  0  0  0  0  0  0  0  0  0  0  0
    4.8418   -3.3480    0.5798 C   0  0  0  0  0  0  0  0  0  0  0  0
    4.4190   -2.0358   -0.0839 C   0  0  0  0  0  0  0  0  0  0  0  0
    5.3229   -0.9949    0.2797 O   0  0  0  0  0  0  0  0  0  0  0  0
    5.1930    0.3479   -0.1049 C   0  0  0  0  0  0  0  0  0  0  0  0
    6.1161    1.2745    0.4002 C   0  0  0  0  0  0  0  0  0  0  0  0
    7.1175    0.8118    1.2686 O   0  0  0  0  0  0  0  0  0  0  0  0
    8.1119    1.6370    1.8659 C   0  0  0  0  0  0  0  0  0  0  0  0
    6.0173    2.6265    0.0247 C   0  0  0  0  0  0  0  0  0  0  0  0
    4.9969    3.0499   -0.8285 C   0  0  0  0  0  0  0  0  0  0  0  0
    4.0430    2.1383   -1.3068 C   0  0  0  0  0  0  0  0  0  0  0  0
    2.9446    2.6019   -2.2381 C   0  0  0  0  0  0  0  0  0  0  0  0
    1.5100    2.6635   -1.6266 C   0  0  1  0  0  0  0  0  0  0  0  0
    0.9663    1.2437   -1.2823 C   0  0  0  0  0  0  0  0  0  0  0  0
   -0.5762    1.1639   -1.0993 C   0  0  2  0  0  0  0  0  0  0  0  0
   -0.9430    1.7033    0.2153 N   0  0  0  0  0  0  0  0  0  0  0  0
   -1.1112   -0.2988   -1.3208 C   0  0  1  0  0  0  0  0  0  0  0  0
   -1.1025   -1.0860   -0.1545 O   0  0  0  0  0  0  0  0  0  0  0  0
   -2.4502   -0.3937   -2.1090 C   0  0  0  0  0  0  0  0  0  0  0  0
   -3.6942    0.3531   -1.5394 C   0  0  1  0  0  0  0  0  0  0  0  0
   -4.9122    0.3422   -2.5228 C   0  0  0  0  0  0  0  0  0  0  0  0
   -4.5533    0.8603   -3.9286 C   0  0  0  0  0  0  0  0  0  0  0  0
   -6.0750    1.1916   -1.9731 C   0  0  0  0  0  0  0  0  0  0  0  0
   -4.1173   -0.2316   -0.2084 C   0  0  0  0  0  0  0  0  0  0  0  0
   -4.2698    0.5374    0.7797 O   0  0  0  0  0  0  0  0  0  0  0  0
   -4.3817   -1.6380   -0.0720 N   0  0  0  0  0  0  0  0  0  0  0  0
   -4.5746   -2.2887    1.2267 C   0  0  0  0  0  0  0  0  0  0  0  0
   -6.0367   -2.7676    1.4311 C   0  0  0  0  0  0  0  0  0  0  0  0
   -7.0038   -1.5672    1.3042 C   0  0  0  0  0  0  0  0  0  0  0  0
   -6.4221   -3.8219    0.3708 C   0  0  0  0  0  0  0  0  0  0  0  0
   -6.1500   -3.3936    2.8175 C   0  0  0  0  0  0  0  0  0  0  0  0
   -5.4177   -4.5768    3.1501 N   0  0  0  0  0  0  0  0  0  0  0  0
   -6.8777   -2.8649    3.7024 O   0  0  0  0  0  0  0  0  0  0  0  0
    1.3005    3.7381   -0.5047 C   0  0  0  0  0  0  0  0  0  0  0  0
    1.9158    3.3906    0.8623 C   0  0  0  0  0  0  0  0  0  0  0  0
    1.7466    5.1407   -0.9455 C   0  0  0  0  0  0  0  0  0  0  0  0
    4.1728    0.7809   -0.9725 C   0  0  0  0  0  0  0  0  0  0  0  0
    7.2094   -3.1577    2.2839 H   0  0  0  0  0  0  0  0  0  0  0  0
    7.1965   -1.8678    3.5271 H   0  0  0  0  0  0  0  0  0  0  0  0
    6.5331   -3.4797    3.9501 H   0  0  0  0  0  0  0  0  0  0  0  0
    4.8746   -4.3381    2.5236 H   0  0  0  0  0  0  0  0  0  0  0  0
    3.5529   -3.1715    2.3079 H   0  0  0  0  0  0  0  0  0  0  0  0
    4.2333   -4.1732    0.1506 H   0  0  0  0  0  0  0  0  0  0  0  0
    5.9056   -3.5598    0.3403 H   0  0  0  0  0  0  0  0  0  0  0  0
    4.4394   -2.1704   -1.1871 H   0  0  0  0  0  0  0  0  0  0  0  0
    3.3849   -1.7712    0.2287 H   0  0  0  0  0  0  0  0  0  0  0  0
    8.7635    1.0107    2.5090 H   0  0  0  0  0  0  0  0  0  0  0  0
    8.7373    2.1108    1.0801 H   0  0  0  0  0  0  0  0  0  0  0  0
    7.6333    2.4161    2.4962 H   0  0  0  0  0  0  0  0  0  0  0  0
    6.7244    3.3597    0.3877 H   0  0  0  0  0  0  0  0  0  0  0  0
    4.9486    4.0943   -1.1071 H   0  0  0  0  0  0  0  0  0  0  0  0
    3.2048    3.5927   -2.6678 H   0  0  0  0  0  0  0  0  0  0  0  0
    2.9296    1.9199   -3.1165 H   0  0  0  0  0  0  0  0  0  0  0  0
    0.8804    3.0119   -2.4768 H   0  0  0  0  0  0  0  0  0  0  0  0
    1.4698    0.8237   -0.3883 H   0  0  0  0  0  0  0  0  0  0  0  0
    1.2484    0.5888   -2.1342 H   0  0  0  0  0  0  0  0  0  0  0  0
   -1.0330    1.8130   -1.8784 H   0  0  0  0  0  0  0  0  0  0  0  0
   -0.5081    1.1344    0.9771 H   0  0  0  0  0  0  0  0  0  0  0  0
   -1.9771    1.6866    0.3397 H   0  0  0  0  0  0  0  0  0  0  0  0
   -0.3987   -0.8105   -2.0028 H   0  0  0  0  0  0  0  0  0  0  0  0
   -1.7460   -0.7066    0.4906 H   0  0  0  0  0  0  0  0  0  0  0  0
   -2.6950   -1.4646   -2.2732 H   0  0  0  0  0  0  0  0  0  0  0  0
   -2.2182    0.0196   -3.1112 H   0  0  0  0  0  0  0  0  0  0  0  0
   -3.4114    1.4173   -1.3934 H   0  0  0  0  0  0  0  0  0  0  0  0
   -5.2793   -0.7020   -2.6363 H   0  0  0  0  0  0  0  0  0  0  0  0
   -3.9887    1.8152   -3.8634 H   0  0  0  0  0  0  0  0  0  0  0  0
   -5.4704    1.0325   -4.5318 H   0  0  0  0  0  0  0  0  0  0  0  0
   -3.9548    0.1088   -4.4837 H   0  0  0  0  0  0  0  0  0  0  0  0
   -6.9410    1.1600   -2.6683 H   0  0  0  0  0  0  0  0  0  0  0  0
   -5.7582    2.2489   -1.8445 H   0  0  0  0  0  0  0  0  0  0  0  0
   -6.4285    0.8050   -0.9965 H   0  0  0  0  0  0  0  0  0  0  0  0
   -4.4009   -2.2374   -0.9263 H   0  0  0  0  0  0  0  0  0  0  0  0
   -3.8773   -3.1519    1.2856 H   0  0  0  0  0  0  0  0  0  0  0  0
   -4.2878   -1.6007    2.0525 H   0  0  0  0  0  0  0  0  0  0  0  0
   -6.7253   -0.7603    2.0161 H   0  0  0  0  0  0  0  0  0  0  0  0
   -6.9833   -1.1479    0.2770 H   0  0  0  0  0  0  0  0  0  0  0  0
   -8.0486   -1.8820    1.5165 H   0  0  0  0  0  0  0  0  0  0  0  0
   -5.6781   -4.6450    0.3310 H   0  0  0  0  0  0  0  0  0  0  0  0
   -6.4807   -3.3684   -0.6416 H   0  0  0  0  0  0  0  0  0  0  0  0
   -7.4173   -4.2593    0.6033 H   0  0  0  0  0  0  0  0  0  0  0  0
   -5.5047   -4.9946    4.1030 H   0  0  0  0  0  0  0  0  0  0  0  0
   -4.7806   -5.0365    2.4637 H   0  0  0  0  0  0  0  0  0  0  0  0
    0.2061    3.8297   -0.3453 H   0  0  0  0  0  0  0  0  0  0  0  0
    3.0188    3.4399    0.8429 H   0  0  0  0  0  0  0  0  0  0  0  0
    1.6052    2.3880    1.2119 H   0  0  0  0  0  0  0  0  0  0  0  0
    1.5655    4.1224    1.6212 H   0  0  0  0  0  0  0  0  0  0  0  0
    1.3811    5.8998   -0.2210 H   0  0  0  0  0  0  0  0  0  0  0  0
    1.3233    5.3874   -1.9424 H   0  0  0  0  0  0  0  0  0  0  0  0
    2.8514    5.2169   -0.9914 H   0  0  0  0  0  0  0  0  0  0  0  0
    3.4888    0.0633   -1.4002 H   0  0  0  0  0  0  0  0  0  0  0  0
  1  2  1  0
  2  3  1  0
  3  4  1  0
  4  5  1  0
  5  6  1  0
  6  7  1  0
  7  8  2  0
  8  9  1  0
  9 10  1  0
  8 11  1  0
 11 12  2  0
 12 13  1  0
 13 14  1  0
 14 15  1  0
 15 16  1  0
 16 17  1  0
 17 18  1  0
 17 19  1  0
 19 20  1  0
 19 21  1  0
 21 22  1  0
 22 23  1  0
 23 24  1  0
 23 25  1  0
 22 26  1  0
 26 27  2  0
 26 28  1  0
 28 29  1  0
 29 30  1  0
 30 31  1  0
 30 32  1  0
 30 33  1  0
 33 34  1  0
 33 35  2  0
 15 36  1  0
 36 37  1  0
 36 38  1  0
 13 39  2  0
 39  7  1  0
  1 40  1  0
  1 41  1  0
  1 42  1  0
  3 43  1  0
  3 44  1  0
  4 45  1  0
  4 46  1  0
  5 47  1  0
  5 48  1  0
 10 49  1  0
 10 50  1  0
 10 51  1  0
 11 52  1  0
 12 53  1  0
 14 54  1  0
 14 55  1  0
 15 56  1  6
 16 57  1  0
 16 58  1  0
 17 59  1  6
 18 60  1  0
 18 61  1  0
 19 62  1  6
 20 63  1  0
 21 64  1  0
 21 65  1  0
 22 66  1  1
 23 67  1  0
 24 68  1  0
 24 69  1  0
 24 70  1  0
 25 71  1  0
 25 72  1  0
 25 73  1  0
 28 74  1  0
 29 75  1  0
 29 76  1  0
 31 77  1  0
 31 78  1  0
 31 79  1  0
 32 80  1  0
 32 81  1  0
 32 82  1  0
 34 83  1  0
 34 84  1  0
 36 85  1  0
 37 86  1  0
 37 87  1  0
 37 88  1  0
 38 89  1  0
 38 90  1  0
 38 91  1  0
 39 92  1  0
M  END
$$$$
