
     RDKit          3D

 72 75  0  0  0  0  0  0  0  0999 V2000
    2.6819    2.9350   -1.7754 C   0  0  0  0  0  0  0  0  0  0  0  0
    1.2951    2.8674   -1.4620 O   0  0  0  0  0  0  0  0  0  0  0  0
    0.6686    1.9306   -0.6170 C   0  0  0  0  0  0  0  0  0  0  0  0
    1.3627    0.9054    0.0705 C   0  0  0  0  0  0  0  0  0  0  0  0
    2.7505    0.7671   -0.0967 O   0  0  0  0  0  0  0  0  0  0  0  0
    3.5168   -0.4163    0.1420 C   0  0  2  0  0  0  0  0  0  0  0  0
    4.8825   -0.0880   -0.0311 O   0  0  0  0  0  0  0  0  0  0  0  0
    5.7130   -1.1458    0.4259 C   0  0  2  0  0  0  0  0  0  0  0  0
    7.1738   -0.7459    0.1673 C   0  0  0  0  0  0  0  0  0  0  0  0
    8.0564   -1.6850    0.7216 O   0  0  0  0  0  0  0  0  0  0  0  0
    5.3661   -2.5068   -0.2595 C   0  0  1  0  0  0  0  0  0  0  0  0
    4.8574   -3.3921    0.7070 O   0  0  0  0  0  0  0  0  0  0  0  0
    4.3301   -2.3092   -1.3829 C   0  0  2  0  0  0  0  0  0  0  0  0
    4.9320   -1.6058   -2.4409 O   0  0  0  0  0  0  0  0  0  0  0  0
    3.1002   -1.5285   -0.8599 C   0  0  1  0  0  0  0  0  0  0  0  0
    2.2102   -2.4132   -0.2281 O   0  0  0  0  0  0  0  0  0  0  0  0
    0.6451    0.0379    0.9111 C   0  0  0  0  0  0  0  0  0  0  0  0
   -0.7413    0.1532    1.0544 C   0  0  0  0  0  0  0  0  0  0  0  0
   -1.4916   -0.8408    1.8975 C   0  0  0  0  0  0  0  0  0  0  0  0
   -2.2330   -1.8604    1.0207 C   0  0  0  0  0  0  0  0  0  0  0  0
   -2.9820   -1.2718   -0.2106 C   0  0  2  0  0  0  0  0  0  0  0  0
   -2.0952   -1.1086   -1.3749 N   0  0  0  0  0  0  0  0  0  0  0  0
   -1.4208   -2.2037   -2.0105 C   0  0  0  0  0  0  0  0  0  0  0  0
   -0.4073   -1.9339   -3.0741 C   0  0  0  0  0  0  0  0  0  0  0  0
   -1.7131   -3.3945   -1.7176 O   0  0  0  0  0  0  0  0  0  0  0  0
   -3.7098    0.0481    0.1322 C   0  0  0  0  0  0  0  0  0  0  0  0
   -5.1159   -0.0348    0.1310 C   0  0  0  0  0  0  0  0  0  0  0  0
   -6.1057    0.9175    0.3827 C   0  0  0  0  0  0  0  0  0  0  0  0
   -7.2955    0.5200    0.2363 O   0  0  0  0  0  0  0  0  0  0  0  0
   -5.9286    2.2434    0.7891 C   0  0  0  0  0  0  0  0  0  0  0  0
   -7.4104    3.2429    1.0646 S   0  0  0  0  0  0  0  0  0  0  0  0
   -7.5423    2.7949    2.8242 C   0  0  0  0  0  0  0  0  0  0  0  0
   -4.7276    2.8999    1.0175 C   0  0  0  0  0  0  0  0  0  0  0  0
   -3.4281    2.4495    0.8630 C   0  0  0  0  0  0  0  0  0  0  0  0
   -2.9395    1.2116    0.4287 C   0  0  0  0  0  0  0  0  0  0  0  0
   -1.4447    1.1401    0.3388 C   0  0  0  0  0  0  0  0  0  0  0  0
   -0.7264    2.0285   -0.4943 C   0  0  0  0  0  0  0  0  0  0  0  0
   -1.3870    3.0219   -1.2256 O   0  0  0  0  0  0  0  0  0  0  0  0
   -2.1362    2.7246   -2.3980 C   0  0  0  0  0  0  0  0  0  0  0  0
    3.2762    3.1175   -0.8556 H   0  0  0  0  0  0  0  0  0  0  0  0
    2.8509    3.7830   -2.4699 H   0  0  0  0  0  0  0  0  0  0  0  0
    3.0076    2.0024   -2.2827 H   0  0  0  0  0  0  0  0  0  0  0  0
    3.3500   -0.7428    1.1945 H   0  0  0  0  0  0  0  0  0  0  0  0
    5.6019   -1.2389    1.5318 H   0  0  0  0  0  0  0  0  0  0  0  0
    7.3718    0.2624    0.5978 H   0  0  0  0  0  0  0  0  0  0  0  0
    7.3561   -0.6825   -0.9270 H   0  0  0  0  0  0  0  0  0  0  0  0
    8.0605   -1.5277    1.7018 H   0  0  0  0  0  0  0  0  0  0  0  0
    6.2807   -2.9599   -0.7116 H   0  0  0  0  0  0  0  0  0  0  0  0
    4.9008   -4.3045    0.3173 H   0  0  0  0  0  0  0  0  0  0  0  0
    4.0106   -3.3124   -1.7529 H   0  0  0  0  0  0  0  0  0  0  0  0
    4.3635   -1.7485   -3.2425 H   0  0  0  0  0  0  0  0  0  0  0  0
    2.5880   -1.0547   -1.7313 H   0  0  0  0  0  0  0  0  0  0  0  0
    1.7188   -2.8922   -0.9456 H   0  0  0  0  0  0  0  0  0  0  0  0
    1.1562   -0.7346    1.4651 H   0  0  0  0  0  0  0  0  0  0  0  0
   -0.8044   -1.3825    2.5838 H   0  0  0  0  0  0  0  0  0  0  0  0
   -2.2177   -0.3052    2.5474 H   0  0  0  0  0  0  0  0  0  0  0  0
   -2.9739   -2.3807    1.6665 H   0  0  0  0  0  0  0  0  0  0  0  0
   -1.5081   -2.6353    0.6955 H   0  0  0  0  0  0  0  0  0  0  0  0
   -3.7162   -2.0542   -0.5041 H   0  0  0  0  0  0  0  0  0  0  0  0
   -2.0261   -0.1805   -1.8476 H   0  0  0  0  0  0  0  0  0  0  0  0
   -0.9244   -1.7357   -4.0357 H   0  0  0  0  0  0  0  0  0  0  0  0
    0.2016   -1.0475   -2.7970 H   0  0  0  0  0  0  0  0  0  0  0  0
    0.2693   -2.8062   -3.1951 H   0  0  0  0  0  0  0  0  0  0  0  0
   -5.5309   -1.0040   -0.1260 H   0  0  0  0  0  0  0  0  0  0  0  0
   -7.6673    1.6971    2.9306 H   0  0  0  0  0  0  0  0  0  0  0  0
   -6.6332    3.1226    3.3703 H   0  0  0  0  0  0  0  0  0  0  0  0
   -8.4267    3.3015    3.2617 H   0  0  0  0  0  0  0  0  0  0  0  0
   -4.8073    3.9272    1.3564 H   0  0  0  0  0  0  0  0  0  0  0  0
   -2.6843    3.1980    1.1186 H   0  0  0  0  0  0  0  0  0  0  0  0
   -1.4964    2.1890   -3.1311 H   0  0  0  0  0  0  0  0  0  0  0  0
   -3.0202    2.1025   -2.1509 H   0  0  0  0  0  0  0  0  0  0  0  0
   -2.4880    3.6726   -2.8535 H   0  0  0  0  0  0  0  0  0  0  0  0
  1  2  1  0
  2  3  1  0
  3  4  2  0
  4  5  1  0
  5  6  1  0
  6  7  1  0
  7  8  1  0
  8  9  1  0
  9 10  1  0
  8 11  1  0
 11 12  1  0
 11 13  1  0
 13 14  1  0
 13 15  1  0
 15 16  1  0
  4 17  1  0
 17 18  2  0
 18 19  1  0
 19 20  1  0
 20 21  1  0
 21 22  1  0
 22 23  1  0
 23 24  1  0
 23 25  2  0
 21 26  1  0
 26 27  2  0
 27 28  1  0
 28 29  2  0
 28 30  1  0
 30 31  1  0
 31 32  1  0
 30 33  2  0
 33 34  1  0
 34 35  2  0
 35 36  1  0
 36 37  2  0
 37 38  1  0
 38 39  1  0
 37  3  1  0
 15  6  1  0
 36 18  1  0
 35 26  1  0
  1 40  1  0
  1 41  1  0
  1 42  1  0
  6 43  1  1
  8 44  1  1
  9 45  1  0
  9 46  1  0
 10 47  1  0
 11 48  1  6
 12 49  1  0
 13 50  1  6
 14 51  1  0
 15 52  1  6
 16 53  1  0
 17 54  1  0
 19 55  1  0
 19 56  1  0
 20 57  1  0
 20 58  1  0
 21 59  1  6
 22 60  1  0
 24 61  1  0
 24 62  1  0
 24 63  1  0
 27 64  1  0
 32 65  1  0
 32 66  1  0
 32 67  1  0
 33 68  1  0
 34 69  1  0
 39 70  1  0
 39 71  1  0
 39 72  1  0
M  END
$$$$
