
     RDKit          3D

 66 67  0  0  0  0  0  0  0  0999 V2000
   -5.1686   -2.4169    2.1459 C   0  0  0  0  0  0  0  0  0  0  0  0
   -5.4765   -1.8977    0.8702 O   0  0  0  0  0  0  0  0  0  0  0  0
   -5.2022   -0.5056    0.8158 C   0  0  1  0  0  0  0  0  0  0  0  0
   -3.7703   -0.2896    0.3858 C   0  0  0  0  0  0  0  0  0  0  0  0
   -3.1849    0.9096    0.4758 C   0  0  0  0  0  0  0  0  0  0  0  0
   -1.7882    1.1347    0.0656 C   0  0  0  0  0  0  0  0  0  0  0  0
   -1.1766    2.3820    0.1604 C   0  0  0  0  0  0  0  0  0  0  0  0
    0.4001    2.2272   -0.4031 S   0  0  0  0  0  0  0  0  0  0  0  0
    0.2389    0.5878   -0.7425 C   0  0  0  0  0  0  0  0  0  0  0  0
   -0.9995    0.1434   -0.4357 N   0  0  0  0  0  0  0  0  0  0  0  0
    1.2967   -0.2645   -1.3002 C   0  0  0  0  0  0  0  0  0  0  0  0
    1.1228   -1.6215   -1.5650 C   0  0  0  0  0  0  0  0  0  0  0  0
    2.5696   -2.2139   -2.1835 S   0  0  0  0  0  0  0  0  0  0  0  0
    3.3484   -0.7260   -2.0969 C   0  0  0  0  0  0  0  0  0  0  0  0
    2.5320    0.2260   -1.5924 N   0  0  0  0  0  0  0  0  0  0  0  0
    4.7808   -0.4838   -2.4792 C   0  0  1  0  0  0  0  0  0  0  0  0
    4.8800    0.6789   -3.4718 C   0  0  0  0  0  0  0  0  0  0  0  0
    5.6077   -0.2107   -1.2490 C   0  0  0  0  0  0  0  0  0  0  0  0
    6.9405   -0.2964   -1.2762 C   0  0  0  0  0  0  0  0  0  0  0  0
    7.7427   -0.0257   -0.0723 C   0  0  0  0  0  0  0  0  0  0  0  0
    9.0757   -0.1107   -0.0993 C   0  0  0  0  0  0  0  0  0  0  0  0
    9.9057    0.1764    1.1276 C   0  0  0  0  0  0  0  0  0  0  0  0
   11.3796    0.3565    0.7479 C   0  0  0  0  0  0  0  0  0  0  0  0
    9.7549   -0.9501    2.1569 C   0  0  0  0  0  0  0  0  0  0  0  0
   -6.1899    0.1712   -0.1702 C   0  0  1  0  0  0  0  0  0  0  0  0
   -6.0986   -0.4327   -1.5844 C   0  0  0  0  0  0  0  0  0  0  0  0
   -7.6106    0.0596    0.3605 C   0  0  0  0  0  0  0  0  0  0  0  0
   -8.2913   -1.1393    0.0689 O   0  0  0  0  0  0  0  0  0  0  0  0
   -9.6071   -1.4736    0.5017 C   0  0  0  0  0  0  0  0  0  0  0  0
   -8.2077    1.0377    1.0857 C   0  0  0  0  0  0  0  0  0  0  0  0
   -7.5840    2.2969    1.5524 C   0  0  0  0  0  0  0  0  0  0  0  0
   -8.4130    3.4175    1.8598 N   0  0  0  0  0  0  0  0  0  0  0  0
   -6.3430    2.3831    1.7474 O   0  0  0  0  0  0  0  0  0  0  0  0
   -4.1143   -2.2025    2.4304 H   0  0  0  0  0  0  0  0  0  0  0  0
   -5.2938   -3.5186    2.1194 H   0  0  0  0  0  0  0  0  0  0  0  0
   -5.8675   -2.0153    2.9123 H   0  0  0  0  0  0  0  0  0  0  0  0
   -5.3416   -0.0175    1.8114 H   0  0  0  0  0  0  0  0  0  0  0  0
   -3.2093   -1.1412    0.0185 H   0  0  0  0  0  0  0  0  0  0  0  0
   -3.7483    1.7503    0.8625 H   0  0  0  0  0  0  0  0  0  0  0  0
   -1.6325    3.2910    0.5300 H   0  0  0  0  0  0  0  0  0  0  0  0
    0.2213   -2.1968   -1.4000 H   0  0  0  0  0  0  0  0  0  0  0  0
    5.1666   -1.4019   -2.9757 H   0  0  0  0  0  0  0  0  0  0  0  0
    5.9298    0.8057   -3.8119 H   0  0  0  0  0  0  0  0  0  0  0  0
    4.5397    1.6276   -3.0029 H   0  0  0  0  0  0  0  0  0  0  0  0
    4.2509    0.4730   -4.3643 H   0  0  0  0  0  0  0  0  0  0  0  0
    5.1095    0.0616   -0.3242 H   0  0  0  0  0  0  0  0  0  0  0  0
    7.4411   -0.5708   -2.1983 H   0  0  0  0  0  0  0  0  0  0  0  0
    7.2417    0.2494    0.8493 H   0  0  0  0  0  0  0  0  0  0  0  0
    9.5746   -0.3685   -1.0277 H   0  0  0  0  0  0  0  0  0  0  0  0
    9.5550    1.1282    1.5856 H   0  0  0  0  0  0  0  0  0  0  0  0
   11.7872   -0.5749    0.2983 H   0  0  0  0  0  0  0  0  0  0  0  0
   11.9786    0.6116    1.6482 H   0  0  0  0  0  0  0  0  0  0  0  0
   11.4863    1.1856    0.0159 H   0  0  0  0  0  0  0  0  0  0  0  0
   10.0848   -1.9202    1.7264 H   0  0  0  0  0  0  0  0  0  0  0  0
   10.3670   -0.7303    3.0576 H   0  0  0  0  0  0  0  0  0  0  0  0
    8.6956   -1.0425    2.4779 H   0  0  0  0  0  0  0  0  0  0  0  0
   -5.9185    1.2394   -0.2979 H   0  0  0  0  0  0  0  0  0  0  0  0
   -6.8459    0.0484   -2.2513 H   0  0  0  0  0  0  0  0  0  0  0  0
   -6.2869   -1.5274   -1.5718 H   0  0  0  0  0  0  0  0  0  0  0  0
   -5.0924   -0.2529   -2.0187 H   0  0  0  0  0  0  0  0  0  0  0  0
  -10.3431   -0.7597    0.0755 H   0  0  0  0  0  0  0  0  0  0  0  0
   -9.6585   -1.4659    1.6111 H   0  0  0  0  0  0  0  0  0  0  0  0
   -9.8569   -2.4931    0.1433 H   0  0  0  0  0  0  0  0  0  0  0  0
   -9.2467    0.9241    1.3595 H   0  0  0  0  0  0  0  0  0  0  0  0
   -7.9904    4.3028    2.2178 H   0  0  0  0  0  0  0  0  0  0  0  0
   -9.4473    3.3715    1.7236 H   0  0  0  0  0  0  0  0  0  0  0  0
  1  2  1  0
  2  3  1  0
  3  4  1  0
  4  5  2  0
  5  6  1  0
  6  7  2  0
  7  8  1  0
  8  9  1  0
  9 10  2  0
  9 11  1  0
 11 12  2  0
 12 13  1  0
 13 14  1  0
 14 15  2  0
 14 16  1  0
 16 17  1  0
 16 18  1  0
 18 19  2  0
 19 20  1  0
 20 21  2  0
 21 22  1  0
 22 23  1  0
 22 24  1  0
  3 25  1  0
 25 26  1  0
 25 27  1  0
 27 28  1  0
 28 29  1  0
 27 30  2  0
 30 31  1  0
 31 32  1  0
 31 33  2  0
 10  6  1  0
 15 11  1  0
  1 34  1  0
  1 35  1  0
  1 36  1  0
  3 37  1  1
  4 38  1  0
  5 39  1  0
  7 40  1  0
 12 41  1  0
 16 42  1  6
 17 43  1  0
 17 44  1  0
 17 45  1  0
 18 46  1  0
 19 47  1  0
 20 48  1  0
 21 49  1  0
 22 50  1  0
 23 51  1  0
 23 52  1  0
 23 53  1  0
 24 54  1  0
 24 55  1  0
 24 56  1  0
 25 57  1  6
 26 58  1  0
 26 59  1  0
 26 60  1  0
 29 61  1  0
 29 62  1  0
 29 63  1  0
 30 64  1  0
 32 65  1  0
 32 66  1  0
M  END
$$$$
