
     RDKit          3D

 54 55  0  0  0  0  0  0  0  0999 V2000
   -3.5314   -0.4342    1.3956 C   0  0  2  0  0  0  0  0  0  0  0  0
   -4.1994    0.8309    1.9391 C   0  0  0  0  0  0  0  0  0  0  0  0
   -2.5122   -0.0702    0.4072 N   0  0  0  0  0  0  0  0  0  0  0  0
   -1.1935    0.3519    0.7836 C   0  0  0  0  0  0  0  0  0  0  0  0
   -0.8775    0.4207    2.0034 O   0  0  0  0  0  0  0  0  0  0  0  0
   -0.2108    0.7742   -0.2838 C   0  0  1  0  0  0  0  0  0  0  0  0
   -0.4727    2.2199   -0.7495 C   0  0  0  0  0  0  0  0  0  0  0  0
   -0.3009    3.2328    0.3566 C   0  0  0  0  0  0  0  0  0  0  0  0
    0.9685    3.7619    0.6453 C   0  0  0  0  0  0  0  0  0  0  0  0
    1.1293    4.6769    1.6902 C   0  0  0  0  0  0  0  0  0  0  0  0
    0.0267    5.0689    2.4542 C   0  0  0  0  0  0  0  0  0  0  0  0
   -1.2391    4.5470    2.1740 C   0  0  0  0  0  0  0  0  0  0  0  0
   -1.4043    3.6324    1.1296 C   0  0  0  0  0  0  0  0  0  0  0  0
    1.1772    0.6179    0.1704 N   0  0  0  0  0  0  0  0  0  0  0  0
    2.2604    0.3890   -0.7379 C   0  0  0  0  0  0  0  0  0  0  0  0
    2.0370    0.2277   -1.9694 O   0  0  0  0  0  0  0  0  0  0  0  0
    3.5688    0.3534   -0.2435 O   0  0  0  0  0  0  0  0  0  0  0  0
    4.7085    0.0960   -1.0610 C   0  0  0  0  0  0  0  0  0  0  0  0
    4.7415   -1.3498   -1.4758 C   0  0  0  0  0  0  0  0  0  0  0  0
    4.9642   -2.3494   -0.5150 C   0  0  0  0  0  0  0  0  0  0  0  0
    4.9768   -3.6966   -0.8901 C   0  0  0  0  0  0  0  0  0  0  0  0
    4.7638   -4.0541   -2.2243 C   0  0  0  0  0  0  0  0  0  0  0  0
    4.5366   -3.0651   -3.1854 C   0  0  0  0  0  0  0  0  0  0  0  0
    4.5234   -1.7167   -2.8145 C   0  0  0  0  0  0  0  0  0  0  0  0
   -4.5519   -1.3527    0.7728 C   0  0  0  0  0  0  0  0  0  0  0  0
   -4.2130   -2.5822    0.3685 C   0  0  0  0  0  0  0  0  0  0  0  0
   -5.1868   -3.5084   -0.2467 C   0  0  0  0  0  0  0  0  0  0  0  0
   -6.3873   -3.1579   -0.4057 O   0  0  0  0  0  0  0  0  0  0  0  0
   -4.7794   -4.8505   -0.6843 C   0  0  0  0  0  0  0  0  0  0  0  0
   -3.5916   -5.2463   -0.5479 O   0  0  0  0  0  0  0  0  0  0  0  0
   -3.0571   -0.9737    2.2459 H   0  0  0  0  0  0  0  0  0  0  0  0
   -4.6574    1.4147    1.1117 H   0  0  0  0  0  0  0  0  0  0  0  0
   -3.4486    1.4674    2.4528 H   0  0  0  0  0  0  0  0  0  0  0  0
   -4.9876    0.5631    2.6751 H   0  0  0  0  0  0  0  0  0  0  0  0
   -2.7752   -0.0377   -0.6047 H   0  0  0  0  0  0  0  0  0  0  0  0
   -0.3762    0.1027   -1.1552 H   0  0  0  0  0  0  0  0  0  0  0  0
    0.2188    2.4646   -1.5852 H   0  0  0  0  0  0  0  0  0  0  0  0
   -1.5009    2.2900   -1.1685 H   0  0  0  0  0  0  0  0  0  0  0  0
    1.8322    3.4631    0.0642 H   0  0  0  0  0  0  0  0  0  0  0  0
    2.1094    5.0806    1.9090 H   0  0  0  0  0  0  0  0  0  0  0  0
    0.1531    5.7763    3.2635 H   0  0  0  0  0  0  0  0  0  0  0  0
   -2.0923    4.8500    2.7670 H   0  0  0  0  0  0  0  0  0  0  0  0
   -2.3900    3.2344    0.9243 H   0  0  0  0  0  0  0  0  0  0  0  0
    1.4241    0.8211    1.1653 H   0  0  0  0  0  0  0  0  0  0  0  0
    5.6240    0.3228   -0.4748 H   0  0  0  0  0  0  0  0  0  0  0  0
    4.7049    0.7755   -1.9415 H   0  0  0  0  0  0  0  0  0  0  0  0
    5.1258   -2.0845    0.5227 H   0  0  0  0  0  0  0  0  0  0  0  0
    5.1499   -4.4633   -0.1461 H   0  0  0  0  0  0  0  0  0  0  0  0
    4.7729   -5.0972   -2.5130 H   0  0  0  0  0  0  0  0  0  0  0  0
    4.3689   -3.3433   -4.2178 H   0  0  0  0  0  0  0  0  0  0  0  0
    4.3411   -0.9619   -3.5693 H   0  0  0  0  0  0  0  0  0  0  0  0
   -5.5734   -1.0075    0.6567 H   0  0  0  0  0  0  0  0  0  0  0  0
   -3.1880   -2.9116    0.4938 H   0  0  0  0  0  0  0  0  0  0  0  0
   -5.5092   -5.5128   -1.1319 H   0  0  0  0  0  0  0  0  0  0  0  0
  1  2  1  0
  1  3  1  0
  3  4  1  0
  4  5  2  0
  4  6  1  0
  6  7  1  0
  7  8  1  0
  8  9  2  0
  9 10  1  0
 10 11  2  0
 11 12  1  0
 12 13  2  0
  6 14  1  0
 14 15  1  0
 15 16  2  0
 15 17  1  0
 17 18  1  0
 18 19  1  0
 19 20  2  0
 20 21  1  0
 21 22  2  0
 22 23  1  0
 23 24  2  0
  1 25  1  0
 25 26  2  0
 26 27  1  0
 27 28  2  0
 27 29  1  0
 29 30  2  0
 13  8  1  0
 24 19  1  0
  1 31  1  1
  2 32  1  0
  2 33  1  0
  2 34  1  0
  3 35  1  0
  6 36  1  6
  7 37  1  0
  7 38  1  0
  9 39  1  0
 10 40  1  0
 11 41  1  0
 12 42  1  0
 13 43  1  0
 14 44  1  0
 18 45  1  0
 18 46  1  0
 20 47  1  0
 21 48  1  0
 22 49  1  0
 23 50  1  0
 24 51  1  0
 25 52  1  0
 26 53  1  0
 29 54  1  0
M  END
$$$$
