
     RDKit          3D

 53 57  0  0  0  0  0  0  0  0999 V2000
   -0.7644   -0.8413    0.1487 C   0  0  2  0  0  0  0  0  0  0  0  0
   -0.6866    0.1873    1.3055 C   0  0  0  0  0  0  0  0  0  0  0  0
    0.5988    0.9737    1.3992 C   0  0  0  0  0  0  0  0  0  0  0  0
    1.6629    0.8043    0.4783 C   0  0  0  0  0  0  0  0  0  0  0  0
    2.7944    1.6460    0.6035 C   0  0  0  0  0  0  0  0  0  0  0  0
    2.9000    2.5606    1.6583 C   0  0  0  0  0  0  0  0  0  0  0  0
    4.0285    3.3675    1.7892 O   0  0  0  0  0  0  0  0  0  0  0  0
    1.8669    2.6746    2.5845 C   0  0  0  0  0  0  0  0  0  0  0  0
    0.7211    1.8952    2.4512 C   0  0  0  0  0  0  0  0  0  0  0  0
    1.4866   -0.1678   -0.7071 C   0  0  1  0  0  0  0  0  0  0  0  0
    2.8415   -0.7332   -1.2457 C   0  0  0  0  0  0  0  0  0  0  0  0
    3.5256   -1.7668   -0.3156 C   0  0  0  0  0  0  0  0  0  0  0  0
    2.8389   -1.9589    1.0458 C   0  0  0  0  0  0  0  0  0  0  0  0
    1.3119   -2.1644    0.9506 C   0  0  0  0  0  0  0  0  0  0  0  0
    0.6310   -1.3969   -0.2416 C   0  0  1  0  0  0  0  0  0  0  0  0
    0.4254   -2.3115   -1.3036 O   0  0  0  0  0  0  0  0  0  0  0  0
    0.7530    0.6466   -1.8281 C   0  0  0  0  0  0  0  0  0  0  0  0
   -0.6434    0.1188   -2.1884 C   0  0  0  0  0  0  0  0  0  0  0  0
   -1.4858   -0.2193   -1.0097 N   0  0  0  0  0  0  0  0  0  0  0  0
   -2.6897   -0.9868   -1.4412 C   0  0  0  0  0  0  0  0  0  0  0  0
   -4.0221   -0.3476   -0.9925 C   0  0  0  0  0  0  0  0  0  0  0  0
   -4.2593   -0.2477    0.5111 C   0  0  0  0  0  0  0  0  0  0  0  0
   -4.3970    1.2657    0.3823 C   0  0  0  0  0  0  0  0  0  0  0  0
   -4.1146    1.1730   -1.1124 C   0  0  0  0  0  0  0  0  0  0  0  0
   -1.3436   -1.7018    0.5541 H   0  0  0  0  0  0  0  0  0  0  0  0
   -1.5194    0.9122    1.2165 H   0  0  0  0  0  0  0  0  0  0  0  0
   -0.8390   -0.3416    2.2721 H   0  0  0  0  0  0  0  0  0  0  0  0
    3.6021    1.6216   -0.1078 H   0  0  0  0  0  0  0  0  0  0  0  0
    4.7992    3.3131    1.1335 H   0  0  0  0  0  0  0  0  0  0  0  0
    1.9448    3.3817    3.4007 H   0  0  0  0  0  0  0  0  0  0  0  0
   -0.0820    2.0147    3.1686 H   0  0  0  0  0  0  0  0  0  0  0  0
    3.5535    0.0666   -1.5238 H   0  0  0  0  0  0  0  0  0  0  0  0
    2.6521   -1.2386   -2.2186 H   0  0  0  0  0  0  0  0  0  0  0  0
    4.5783   -1.4565   -0.1390 H   0  0  0  0  0  0  0  0  0  0  0  0
    3.5678   -2.7524   -0.8291 H   0  0  0  0  0  0  0  0  0  0  0  0
    3.0580   -1.0805    1.6893 H   0  0  0  0  0  0  0  0  0  0  0  0
    3.2916   -2.8354    1.5583 H   0  0  0  0  0  0  0  0  0  0  0  0
    1.1022   -3.2531    0.8595 H   0  0  0  0  0  0  0  0  0  0  0  0
    0.8791   -1.8731    1.9292 H   0  0  0  0  0  0  0  0  0  0  0  0
    1.2329   -2.8724   -1.4280 H   0  0  0  0  0  0  0  0  0  0  0  0
    1.3562    0.6699   -2.7622 H   0  0  0  0  0  0  0  0  0  0  0  0
    0.6355    1.7176   -1.5452 H   0  0  0  0  0  0  0  0  0  0  0  0
   -0.5235   -0.7572   -2.8640 H   0  0  0  0  0  0  0  0  0  0  0  0
   -1.1634    0.8990   -2.7862 H   0  0  0  0  0  0  0  0  0  0  0  0
   -2.7553   -1.0531   -2.5512 H   0  0  0  0  0  0  0  0  0  0  0  0
   -2.6604   -2.0462   -1.1060 H   0  0  0  0  0  0  0  0  0  0  0  0
   -4.8859   -0.8416   -1.4926 H   0  0  0  0  0  0  0  0  0  0  0  0
   -5.2118   -0.7307    0.8211 H   0  0  0  0  0  0  0  0  0  0  0  0
   -3.3980   -0.5521    1.1370 H   0  0  0  0  0  0  0  0  0  0  0  0
   -5.4307    1.6159    0.5960 H   0  0  0  0  0  0  0  0  0  0  0  0
   -3.6153    1.8270    0.9354 H   0  0  0  0  0  0  0  0  0  0  0  0
   -4.9826    1.4976   -1.7269 H   0  0  0  0  0  0  0  0  0  0  0  0
   -3.1658    1.6784   -1.3917 H   0  0  0  0  0  0  0  0  0  0  0  0
  1  2  1  0
  2  3  1  0
  3  4  2  0
  4  5  1  0
  5  6  2  0
  6  7  1  0
  6  8  1  0
  8  9  2  0
  4 10  1  0
 10 11  1  6
 11 12  1  0
 12 13  1  0
 13 14  1  0
 14 15  1  0
 15 16  1  6
 10 17  1  0
 17 18  1  0
 18 19  1  0
 19 20  1  0
 20 21  1  0
 21 22  1  0
 22 23  1  0
 23 24  1  0
 15  1  1  0
 24 21  1  0
 19  1  1  0
  9  3  1  0
 15 10  1  0
  1 25  1  1
  2 26  1  0
  2 27  1  0
  5 28  1  0
  7 29  1  0
  8 30  1  0
  9 31  1  0
 11 32  1  0
 11 33  1  0
 12 34  1  0
 12 35  1  0
 13 36  1  0
 13 37  1  0
 14 38  1  0
 14 39  1  0
 16 40  1  0
 17 41  1  0
 17 42  1  0
 18 43  1  0
 18 44  1  0
 20 45  1  0
 20 46  1  0
 21 47  1  0
 22 48  1  0
 22 49  1  0
 23 50  1  0
 23 51  1  0
 24 52  1  0
 24 53  1  0
M  END
$$$$
