
     RDKit          3D

 42 44  0  0  0  0  0  0  0  0999 V2000
   -5.0208    0.7002   -0.9700 C   0  0  0  0  0  0  0  0  0  0  0  0
   -3.5699    0.5958   -0.8599 N   0  0  0  0  0  4  0  0  0  0  0  0
   -2.7039    1.5826   -0.5103 C   0  0  0  0  0  0  0  0  0  0  0  0
   -1.4183    1.1461   -0.4654 N   0  0  0  0  0  0  0  0  0  0  0  0
   -0.2509    1.9140   -0.0279 C   0  0  2  0  0  0  0  0  0  0  0  0
    0.9222    1.4240   -0.6380 O   0  0  0  0  0  0  0  0  0  0  0  0
    1.9744    1.5291    0.3023 C   0  0  2  0  0  0  0  0  0  0  0  0
    2.6679    0.1693    0.4462 C   0  0  0  0  0  0  0  0  0  0  0  0
    3.1219   -0.2590   -0.8160 O   0  0  0  0  0  0  0  0  0  0  0  0
    4.1355   -1.6129   -0.5949 P   0  0  0  0  0  5  0  0  0  0  0  0
    3.4242   -2.7344    0.4577 O   0  0  0  0  0  0  0  0  0  0  0  0
    5.6234   -1.1052    0.0335 O   0  0  0  0  0  0  0  0  0  0  0  0
    4.3644   -2.2747   -1.9343 O   0  0  0  0  0  0  0  0  0  0  0  0
    1.4081    2.0159    1.6475 C   0  0  1  0  0  0  0  0  0  0  0  0
    1.7493    3.3623    1.8896 O   0  0  0  0  0  0  0  0  0  0  0  0
   -0.0821    1.8259    1.4783 C   0  0  1  0  0  0  0  0  0  0  0  0
   -0.8306    2.8191    2.1299 O   0  0  0  0  0  0  0  0  0  0  0  0
   -1.5042   -0.1615   -0.7745 C   0  0  0  0  0  0  0  0  0  0  0  0
   -2.7955   -0.4962   -1.0173 C   0  0  0  0  0  0  0  0  0  0  0  0
   -3.1230   -1.8101   -1.3371 C   0  0  0  0  0  0  0  0  0  0  0  0
   -4.3136   -2.1570   -1.5591 O   0  0  0  0  0  0  0  0  0  0  0  0
   -2.1068   -2.7233   -1.4035 N   0  0  0  0  0  0  0  0  0  0  0  0
   -0.8034   -2.3589   -1.1557 C   0  0  0  0  0  0  0  0  0  0  0  0
    0.2397   -3.3289   -1.2408 N   0  0  0  0  0  0  0  0  0  0  0  0
   -0.4970   -1.0654   -0.8316 N   0  0  0  0  0  0  0  0  0  0  0  0
   -5.3457    1.7531   -0.8297 H   0  0  0  0  0  0  0  0  0  0  0  0
   -5.5008    0.0701   -0.1921 H   0  0  0  0  0  0  0  0  0  0  0  0
   -5.3462    0.3603   -1.9755 H   0  0  0  0  0  0  0  0  0  0  0  0
   -3.0054    2.5953   -0.2720 H   0  0  0  0  0  0  0  0  0  0  0  0
   -0.3805    2.9771   -0.3352 H   0  0  0  0  0  0  0  0  0  0  0  0
    2.7242    2.2554   -0.0837 H   0  0  0  0  0  0  0  0  0  0  0  0
    1.9374   -0.5654    0.8546 H   0  0  0  0  0  0  0  0  0  0  0  0
    3.5151    0.2932    1.1612 H   0  0  0  0  0  0  0  0  0  0  0  0
    3.6926   -2.4413    1.3648 H   0  0  0  0  0  0  0  0  0  0  0  0
    6.1329   -1.9410    0.1842 H   0  0  0  0  0  0  0  0  0  0  0  0
    1.7704    1.4081    2.5064 H   0  0  0  0  0  0  0  0  0  0  0  0
    1.4309    3.9073    1.1225 H   0  0  0  0  0  0  0  0  0  0  0  0
   -0.3768    0.8107    1.8369 H   0  0  0  0  0  0  0  0  0  0  0  0
   -0.7905    2.6077    3.0989 H   0  0  0  0  0  0  0  0  0  0  0  0
   -2.3270   -3.7157   -1.6468 H   0  0  0  0  0  0  0  0  0  0  0  0
    1.2320   -3.0487   -1.0821 H   0  0  0  0  0  0  0  0  0  0  0  0
    0.0266   -4.3231   -1.4776 H   0  0  0  0  0  0  0  0  0  0  0  0
  1  2  1  0
  2  3  2  0
  3  4  1  0
  4  5  1  0
  5  6  1  0
  6  7  1  0
  7  8  1  0
  8  9  1  0
  9 10  1  0
 10 11  1  0
 10 12  1  0
 10 13  2  0
  7 14  1  0
 14 15  1  0
 14 16  1  0
 16 17  1  0
  4 18  1  0
 18 19  2  0
 19 20  1  0
 20 21  2  0
 20 22  1  0
 22 23  1  0
 23 24  1  0
 23 25  2  0
 19  2  1  0
 16  5  1  0
 25 18  1  0
  1 26  1  0
  1 27  1  0
  1 28  1  0
  3 29  1  0
  5 30  1  1
  7 31  1  6
  8 32  1  0
  8 33  1  0
 11 34  1  0
 12 35  1  0
 14 36  1  1
 15 37  1  0
 16 38  1  1
 17 39  1  0
 22 40  1  0
 24 41  1  0
 24 42  1  0
M  CHG  1   2   1
M  END
$$$$
