
     RDKit          3D

 88 88  0  0  0  0  0  0  0  0999 V2000
   -8.6040    0.4371    0.8605 C   0  0  0  0  0  0  0  0  0  0  0  0
   -8.1634   -0.3367   -0.3785 C   0  0  0  0  0  0  0  0  0  0  0  0
   -8.1380   -1.8479   -0.1052 C   0  0  0  0  0  0  0  0  0  0  0  0
   -7.7876   -2.6720   -1.3561 C   0  0  0  0  0  0  0  0  0  0  0  0
   -6.3329   -2.5160   -1.8389 C   0  0  0  0  0  0  0  0  0  0  0  0
   -5.2879   -3.0765   -0.8466 C   0  0  0  0  0  0  0  0  0  0  0  0
   -4.5357   -1.9777   -0.0709 C   0  0  0  0  0  0  0  0  0  0  0  0
   -3.4620   -1.2599   -0.9101 C   0  0  0  0  0  0  0  0  0  0  0  0
   -2.1516   -2.0622   -0.9917 C   0  0  0  0  0  0  0  0  0  0  0  0
   -1.1183   -1.4229   -1.9368 C   0  0  0  0  0  0  0  0  0  0  0  0
   -0.6613   -0.0020   -1.5455 C   0  0  0  0  0  0  0  0  0  0  0  0
   -0.0849    0.1421   -0.1209 C   0  0  1  0  0  0  0  0  0  0  0  0
    1.1348   -0.7686    0.1554 C   0  0  0  0  0  0  0  0  0  0  0  0
    2.3701   -0.4186   -0.7014 C   0  0  2  0  0  0  0  0  0  0  0  0
    2.2823   -0.9823   -2.0014 O   0  0  0  0  0  0  0  0  0  0  0  0
    3.4698   -1.7716   -1.7438 C   0  0  0  0  0  0  0  0  0  0  0  0
    4.1403   -2.6085   -2.4026 O   0  0  0  0  0  0  0  0  0  0  0  0
    3.5483   -1.1938   -0.3694 C   0  0  1  0  0  0  0  0  0  0  0  0
    4.8121   -0.3389   -0.1419 C   0  0  0  0  0  0  0  0  0  0  0  0
    6.0873   -1.1797    0.0348 C   0  0  0  0  0  0  0  0  0  0  0  0
    6.0991   -1.9677    1.3568 C   0  0  0  0  0  0  0  0  0  0  0  0
    7.4720   -2.5873    1.6616 C   0  0  0  0  0  0  0  0  0  0  0  0
    7.8264   -3.7348    0.7045 C   0  0  0  0  0  0  0  0  0  0  0  0
    9.1315   -4.4100    1.1160 C   0  0  0  0  0  0  0  0  0  0  0  0
    0.2721    1.5105    0.0800 O   0  0  0  0  0  0  0  0  0  0  0  0
    0.4957    2.0793    1.3393 C   0  0  0  0  0  0  0  0  0  0  0  0
    0.2276    1.4398    2.3930 O   0  0  0  0  0  0  0  0  0  0  0  0
    1.0422    3.4731    1.4304 C   0  0  2  0  0  0  0  0  0  0  0  0
   -0.0378    4.4847    0.9929 C   0  0  0  0  0  0  0  0  0  0  0  0
    0.4183    5.9622    1.0752 C   0  0  0  0  0  0  0  0  0  0  0  0
    0.6501    6.4142    2.5253 C   0  0  0  0  0  0  0  0  0  0  0  0
   -0.6265    6.8680    0.4104 C   0  0  0  0  0  0  0  0  0  0  0  0
    2.2338    3.5773    0.5829 N   0  0  0  0  0  0  0  0  0  0  0  0
    3.5164    3.1023    1.0047 C   0  0  0  0  0  0  0  0  0  0  0  0
    3.6862    2.6412    2.1646 O   0  0  0  0  0  0  0  0  0  0  0  0
   -8.6106    1.5247    0.6370 H   0  0  0  0  0  0  0  0  0  0  0  0
   -7.9011    0.2513    1.7006 H   0  0  0  0  0  0  0  0  0  0  0  0
   -9.6280    0.1310    1.1637 H   0  0  0  0  0  0  0  0  0  0  0  0
   -7.1546    0.0208   -0.6716 H   0  0  0  0  0  0  0  0  0  0  0  0
   -8.8692   -0.1170   -1.2088 H   0  0  0  0  0  0  0  0  0  0  0  0
   -7.4326   -2.0794    0.7202 H   0  0  0  0  0  0  0  0  0  0  0  0
   -9.1494   -2.1624    0.2339 H   0  0  0  0  0  0  0  0  0  0  0  0
   -7.9812   -3.7457   -1.1413 H   0  0  0  0  0  0  0  0  0  0  0  0
   -8.4723   -2.3840   -2.1835 H   0  0  0  0  0  0  0  0  0  0  0  0
   -6.1283   -1.4580   -2.1020 H   0  0  0  0  0  0  0  0  0  0  0  0
   -6.2420   -3.0860   -2.7893 H   0  0  0  0  0  0  0  0  0  0  0  0
   -5.7775   -3.7561   -0.1155 H   0  0  0  0  0  0  0  0  0  0  0  0
   -4.5608   -3.7062   -1.4008 H   0  0  0  0  0  0  0  0  0  0  0  0
   -4.0611   -2.4278    0.8284 H   0  0  0  0  0  0  0  0  0  0  0  0
   -5.2605   -1.2245    0.3019 H   0  0  0  0  0  0  0  0  0  0  0  0
   -3.8414   -1.0490   -1.9324 H   0  0  0  0  0  0  0  0  0  0  0  0
   -3.2535   -0.2842   -0.4222 H   0  0  0  0  0  0  0  0  0  0  0  0
   -2.3648   -3.0810   -1.3768 H   0  0  0  0  0  0  0  0  0  0  0  0
   -1.7180   -2.1884    0.0226 H   0  0  0  0  0  0  0  0  0  0  0  0
   -1.5525   -1.3788   -2.9594 H   0  0  0  0  0  0  0  0  0  0  0  0
   -0.2349   -2.0916   -2.0056 H   0  0  0  0  0  0  0  0  0  0  0  0
    0.0936    0.3414   -2.2841 H   0  0  0  0  0  0  0  0  0  0  0  0
   -1.5205    0.6943   -1.6517 H   0  0  0  0  0  0  0  0  0  0  0  0
   -0.8886   -0.1170    0.6016 H   0  0  0  0  0  0  0  0  0  0  0  0
    1.4120   -0.6535    1.2256 H   0  0  0  0  0  0  0  0  0  0  0  0
    0.8593   -1.8363    0.0211 H   0  0  0  0  0  0  0  0  0  0  0  0
    2.5521    0.6791   -0.7599 H   0  0  0  0  0  0  0  0  0  0  0  0
    3.3814   -1.9685    0.4101 H   0  0  0  0  0  0  0  0  0  0  0  0
    4.9652    0.3493   -1.0037 H   0  0  0  0  0  0  0  0  0  0  0  0
    4.6636    0.2937    0.7598 H   0  0  0  0  0  0  0  0  0  0  0  0
    6.9559   -0.4856    0.0210 H   0  0  0  0  0  0  0  0  0  0  0  0
    6.1977   -1.8719   -0.8256 H   0  0  0  0  0  0  0  0  0  0  0  0
    5.8421   -1.2795    2.1916 H   0  0  0  0  0  0  0  0  0  0  0  0
    5.3335   -2.7719    1.3331 H   0  0  0  0  0  0  0  0  0  0  0  0
    8.2582   -1.8018    1.6190 H   0  0  0  0  0  0  0  0  0  0  0  0
    7.4466   -2.9814    2.7013 H   0  0  0  0  0  0  0  0  0  0  0  0
    7.9439   -3.3463   -0.3292 H   0  0  0  0  0  0  0  0  0  0  0  0
    7.0137   -4.4935    0.7075 H   0  0  0  0  0  0  0  0  0  0  0  0
    9.3681   -5.2276    0.4029 H   0  0  0  0  0  0  0  0  0  0  0  0
    9.0379   -4.8439    2.1343 H   0  0  0  0  0  0  0  0  0  0  0  0
    9.9655   -3.6762    1.1048 H   0  0  0  0  0  0  0  0  0  0  0  0
    1.3181    3.6762    2.4874 H   0  0  0  0  0  0  0  0  0  0  0  0
   -0.3305    4.2546   -0.0564 H   0  0  0  0  0  0  0  0  0  0  0  0
   -0.9448    4.3470    1.6235 H   0  0  0  0  0  0  0  0  0  0  0  0
    1.3702    6.0872    0.5145 H   0  0  0  0  0  0  0  0  0  0  0  0
    1.5216    5.8884    2.9660 H   0  0  0  0  0  0  0  0  0  0  0  0
    0.8743    7.5019    2.5583 H   0  0  0  0  0  0  0  0  0  0  0  0
   -0.2491    6.2174    3.1476 H   0  0  0  0  0  0  0  0  0  0  0  0
   -0.2901    7.9267    0.4335 H   0  0  0  0  0  0  0  0  0  0  0  0
   -1.6033    6.7900    0.9349 H   0  0  0  0  0  0  0  0  0  0  0  0
   -0.7659    6.5785   -0.6531 H   0  0  0  0  0  0  0  0  0  0  0  0
    2.1357    3.8907   -0.4094 H   0  0  0  0  0  0  0  0  0  0  0  0
    4.3520    3.1351    0.3184 H   0  0  0  0  0  0  0  0  0  0  0  0
  1  2  1  0
  2  3  1  0
  3  4  1  0
  4  5  1  0
  5  6  1  0
  6  7  1  0
  7  8  1  0
  8  9  1  0
  9 10  1  0
 10 11  1  0
 11 12  1  0
 12 13  1  0
 13 14  1  0
 14 15  1  0
 15 16  1  0
 16 17  2  0
 16 18  1  0
 18 19  1  0
 19 20  1  0
 20 21  1  0
 21 22  1  0
 22 23  1  0
 23 24  1  0
 12 25  1  0
 25 26  1  0
 26 27  2  0
 26 28  1  0
 28 29  1  0
 29 30  1  0
 30 31  1  0
 30 32  1  0
 28 33  1  0
 33 34  1  0
 34 35  2  0
 18 14  1  0
  1 36  1  0
  1 37  1  0
  1 38  1  0
  2 39  1  0
  2 40  1  0
  3 41  1  0
  3 42  1  0
  4 43  1  0
  4 44  1  0
  5 45  1  0
  5 46  1  0
  6 47  1  0
  6 48  1  0
  7 49  1  0
  7 50  1  0
  8 51  1  0
  8 52  1  0
  9 53  1  0
  9 54  1  0
 10 55  1  0
 10 56  1  0
 11 57  1  0
 11 58  1  0
 12 59  1  1
 13 60  1  0
 13 61  1  0
 14 62  1  6
 18 63  1  1
 19 64  1  0
 19 65  1  0
 20 66  1  0
 20 67  1  0
 21 68  1  0
 21 69  1  0
 22 70  1  0
 22 71  1  0
 23 72  1  0
 23 73  1  0
 24 74  1  0
 24 75  1  0
 24 76  1  0
 28 77  1  1
 29 78  1  0
 29 79  1  0
 30 80  1  0
 31 81  1  0
 31 82  1  0
 31 83  1  0
 32 84  1  0
 32 85  1  0
 32 86  1  0
 33 87  1  0
 34 88  1  0
M  END
$$$$
