
     RDKit          3D

 59 62  0  0  0  0  0  0  0  0999 V2000
   -3.4863    4.8859   -0.6926 C   0  0  0  0  0  0  0  0  0  0  0  0
   -3.4990    3.5039   -0.0466 C   0  0  0  0  0  0  0  0  0  0  0  0
   -2.7814    2.4762   -0.9267 C   0  0  0  0  0  0  0  0  0  0  0  0
   -2.7879    1.1241   -0.2708 C   0  0  0  0  0  0  0  0  0  0  0  0
   -3.7067    0.1880   -0.5793 N   0  0  0  0  0  0  0  0  0  0  0  0
   -3.4257   -0.8587    0.2250 C   0  0  0  0  0  0  0  0  0  0  0  0
   -2.3187   -0.5401    1.0097 C   0  0  0  0  0  0  0  0  0  0  0  0
   -1.9358    0.7222    0.7035 N   0  0  0  0  0  0  0  0  0  0  0  0
   -0.7653    1.4480    1.2191 C   0  0  0  0  0  0  0  0  0  0  0  0
    0.5116    0.8229    0.7181 C   0  0  0  0  0  0  0  0  0  0  0  0
    1.4856    0.3701    1.6221 C   0  0  0  0  0  0  0  0  0  0  0  0
    2.6668   -0.2119    1.1548 C   0  0  0  0  0  0  0  0  0  0  0  0
    2.9004   -0.3348   -0.2244 C   0  0  0  0  0  0  0  0  0  0  0  0
    1.9259    0.1161   -1.1282 C   0  0  0  0  0  0  0  0  0  0  0  0
    0.7445    0.6976   -0.6607 C   0  0  0  0  0  0  0  0  0  0  0  0
    4.1481   -0.9598   -0.7223 C   0  0  0  0  0  0  0  0  0  0  0  0
    5.4363   -0.5113   -0.3242 C   0  0  0  0  0  0  0  0  0  0  0  0
    6.5704   -1.2319   -0.7387 C   0  0  0  0  0  0  0  0  0  0  0  0
    6.4420   -2.3502   -1.5639 C   0  0  0  0  0  0  0  0  0  0  0  0
    5.1806   -2.7682   -1.9836 C   0  0  0  0  0  0  0  0  0  0  0  0
    4.0408   -2.0811   -1.5645 C   0  0  0  0  0  0  0  0  0  0  0  0
    5.6422    0.7111    0.4870 C   0  0  0  0  0  0  0  0  0  0  0  0
    6.6274    0.8630    1.3926 N   0  0  0  0  0  0  0  0  0  0  0  0
    6.4900    2.1011    1.8460 N   0  0  0  0  0  0  0  0  0  0  0  0
    5.4735    2.6947    1.2388 N   0  0  0  0  0  0  0  0  0  0  0  0
    4.9314    1.8474    0.3835 N   0  0  0  0  0  0  0  0  0  0  0  0
   -1.6339   -1.4139    1.9874 C   0  0  0  0  0  0  0  0  0  0  0  0
   -1.5127   -2.7787    1.7508 O   0  0  0  0  0  0  0  0  0  0  0  0
   -1.1444   -0.9248    3.0394 O   0  0  0  0  0  0  0  0  0  0  0  0
   -4.2072   -2.1605    0.1806 C   0  0  0  0  0  0  0  0  0  0  0  0
   -3.5427   -3.1072   -0.8368 C   0  0  0  0  0  0  0  0  0  0  0  0
   -5.6645   -1.8853   -0.2440 C   0  0  0  0  0  0  0  0  0  0  0  0
   -4.2142   -2.7413    1.4629 O   0  0  0  0  0  0  0  0  0  0  0  0
   -4.0007    4.8567   -1.6767 H   0  0  0  0  0  0  0  0  0  0  0  0
   -2.4413    5.2352   -0.8345 H   0  0  0  0  0  0  0  0  0  0  0  0
   -4.0160    5.6079   -0.0361 H   0  0  0  0  0  0  0  0  0  0  0  0
   -4.5539    3.1885    0.1098 H   0  0  0  0  0  0  0  0  0  0  0  0
   -3.0033    3.5675    0.9462 H   0  0  0  0  0  0  0  0  0  0  0  0
   -3.3029    2.4033   -1.9060 H   0  0  0  0  0  0  0  0  0  0  0  0
   -1.7397    2.7987   -1.1338 H   0  0  0  0  0  0  0  0  0  0  0  0
   -0.8007    1.4624    2.3287 H   0  0  0  0  0  0  0  0  0  0  0  0
   -0.7835    2.5117    0.9087 H   0  0  0  0  0  0  0  0  0  0  0  0
    1.3304    0.4610    2.6898 H   0  0  0  0  0  0  0  0  0  0  0  0
    3.3990   -0.5691    1.8685 H   0  0  0  0  0  0  0  0  0  0  0  0
    2.0865    0.0282   -2.1958 H   0  0  0  0  0  0  0  0  0  0  0  0
    0.0097    1.0445   -1.3754 H   0  0  0  0  0  0  0  0  0  0  0  0
    7.5628   -0.9128   -0.4438 H   0  0  0  0  0  0  0  0  0  0  0  0
    7.3240   -2.8892   -1.8851 H   0  0  0  0  0  0  0  0  0  0  0  0
    5.0843   -3.6349   -2.6248 H   0  0  0  0  0  0  0  0  0  0  0  0
    3.0678   -2.4419   -1.8760 H   0  0  0  0  0  0  0  0  0  0  0  0
    4.1384    2.0673   -0.2581 H   0  0  0  0  0  0  0  0  0  0  0  0
   -1.0414   -3.3822    2.4139 H   0  0  0  0  0  0  0  0  0  0  0  0
   -2.4964   -3.3313   -0.5445 H   0  0  0  0  0  0  0  0  0  0  0  0
   -3.5298   -2.6453   -1.8479 H   0  0  0  0  0  0  0  0  0  0  0  0
   -4.0989   -4.0672   -0.8985 H   0  0  0  0  0  0  0  0  0  0  0  0
   -6.2528   -2.8280   -0.2512 H   0  0  0  0  0  0  0  0  0  0  0  0
   -5.7077   -1.4458   -1.2641 H   0  0  0  0  0  0  0  0  0  0  0  0
   -6.1451   -1.1814    0.4692 H   0  0  0  0  0  0  0  0  0  0  0  0
   -4.6800   -3.6167    1.4038 H   0  0  0  0  0  0  0  0  0  0  0  0
  1  2  1  0
  2  3  1  0
  3  4  1  0
  4  5  2  0
  5  6  1  0
  6  7  2  0
  7  8  1  0
  8  9  1  0
  9 10  1  0
 10 11  2  0
 11 12  1  0
 12 13  2  0
 13 14  1  0
 14 15  2  0
 13 16  1  0
 16 17  1  0
 17 18  2  0
 18 19  1  0
 19 20  2  0
 20 21  1  0
 17 22  1  0
 22 23  2  0
 23 24  1  0
 24 25  2  0
 25 26  1  0
  7 27  1  0
 27 28  1  0
 27 29  2  0
  6 30  1  0
 30 31  1  0
 30 32  1  0
 30 33  1  0
  8  4  1  0
 15 10  1  0
 21 16  2  0
 26 22  1  0
  1 34  1  0
  1 35  1  0
  1 36  1  0
  2 37  1  0
  2 38  1  0
  3 39  1  0
  3 40  1  0
  9 41  1  0
  9 42  1  0
 11 43  1  0
 12 44  1  0
 14 45  1  0
 15 46  1  0
 18 47  1  0
 19 48  1  0
 20 49  1  0
 21 50  1  0
 26 51  1  0
 28 52  1  0
 31 53  1  0
 31 54  1  0
 31 55  1  0
 32 56  1  0
 32 57  1  0
 32 58  1  0
 33 59  1  0
M  END
$$$$
