
     RDKit          3D

 12 12  0  0  0  0  0  0  0  0999 V2000
    2.7204    0.1869    0.0950 F   0  0  0  0  0  0  0  0  0  0  0  0
    1.3678    0.0916    0.0477 C   0  0  0  0  0  0  0  0  0  0  0  0
    0.7497   -1.1560   -0.0150 C   0  0  0  0  0  0  0  0  0  0  0  0
   -0.6061   -1.2409   -0.0621 N   0  0  0  0  0  0  0  0  0  0  0  0
   -1.3755   -0.1175   -0.0488 C   0  0  0  0  0  0  0  0  0  0  0  0
   -2.6313   -0.2142   -0.0931 O   0  0  0  0  0  0  0  0  0  0  0  0
   -0.7895    1.1106    0.0122 N   0  0  0  0  0  0  0  0  0  0  0  0
    0.5653    1.2339    0.0605 C   0  0  0  0  0  0  0  0  0  0  0  0
    1.0937    2.3765    0.1167 O   0  0  0  0  0  0  0  0  0  0  0  0
    1.3499   -2.0571   -0.0262 H   0  0  0  0  0  0  0  0  0  0  0  0
   -1.0572   -2.1825   -0.1089 H   0  0  0  0  0  0  0  0  0  0  0  0
   -1.3872    1.9687    0.0220 H   0  0  0  0  0  0  0  0  0  0  0  0
  1  2  1  0
  2  3  2  0
  3  4  1  0
  4  5  1  0
  5  6  2  0
  5  7  1  0
  7  8  1  0
  8  9  2  0
  8  2  1  0
  3 10  1  0
  4 11  1  0
  7 12  1  0
M  END
$$$$
