
     RDKit          3D

 46 50  0  0  0  0  0  0  0  0999 V2000
    0.4505   -1.4732   -0.8118 C   0  0  1  0  0  0  0  0  0  0  0  0
    1.0485   -0.9396    0.5151 C   0  0  0  0  0  0  0  0  0  0  0  0
   -0.0613   -1.0121    1.5810 C   0  0  0  0  0  0  0  0  0  0  0  0
   -1.1524   -1.7491    0.9719 N   0  0  0  0  0  0  0  0  0  0  0  0
   -2.4337   -2.0109    1.6225 C   0  0  0  0  0  0  0  0  0  0  0  0
   -3.4612   -1.0358    1.1388 C   0  0  0  0  0  0  0  0  0  0  0  0
   -3.5731    0.2849    1.5697 C   0  0  0  0  0  0  0  0  0  0  0  0
   -4.5857    0.8199    0.8039 C   0  0  0  0  0  0  0  0  0  0  0  0
   -5.0271   -0.1626   -0.0379 C   0  0  0  0  0  0  0  0  0  0  0  0
   -4.3466   -1.3046    0.1499 N   0  0  0  0  0  0  0  0  0  0  0  0
   -6.0464    0.0866   -0.9515 C   0  0  0  0  0  0  0  0  0  0  0  0
   -6.5932    1.3384   -0.9797 N   0  0  0  0  0  0  0  0  0  0  0  0
   -6.1653    2.3374   -0.1438 C   0  0  0  0  0  0  0  0  0  0  0  0
   -5.1330    2.0989    0.7819 C   0  0  0  0  0  0  0  0  0  0  0  0
   -0.8631   -2.0024   -0.3889 C   0  0  0  0  0  0  0  0  0  0  0  0
   -1.6521   -2.6147   -1.1573 O   0  0  0  0  0  0  0  0  0  0  0  0
    0.2468   -0.4173   -1.8163 N   0  0  0  0  0  0  0  0  0  0  0  0
    1.6643   -0.2051   -2.8022 S   0  0  0  0  0  6  0  0  0  0  0  0
    1.4287    0.9219   -3.7677 O   0  0  0  0  0  0  0  0  0  0  0  0
    1.9259   -1.4593   -3.5886 O   0  0  0  0  0  0  0  0  0  0  0  0
    3.0698    0.1724   -1.8227 C   0  0  0  0  0  0  0  0  0  0  0  0
    3.9853   -0.7594   -1.3367 C   0  0  0  0  0  0  0  0  0  0  0  0
    4.9650   -0.1557   -0.5482 C   0  0  0  0  0  0  0  0  0  0  0  0
    4.8205    1.2143   -0.4189 C   0  0  0  0  0  0  0  0  0  0  0  0
    3.4699    1.7245   -1.2764 S   0  0  0  0  0  0  0  0  0  0  0  0
    5.7119    1.9639    0.3399 C   0  0  0  0  0  0  0  0  0  0  0  0
    6.7649    1.2851    0.9707 C   0  0  0  0  0  0  0  0  0  0  0  0
    6.8858   -0.1113    0.8210 C   0  0  0  0  0  0  0  0  0  0  0  0
    5.9854   -0.8080    0.0662 N   0  0  0  0  0  0  0  0  0  0  0  0
    1.0606   -2.3119   -1.2154 H   0  0  0  0  0  0  0  0  0  0  0  0
    1.8978   -1.5885    0.8219 H   0  0  0  0  0  0  0  0  0  0  0  0
    1.4267    0.1010    0.4276 H   0  0  0  0  0  0  0  0  0  0  0  0
    0.2956   -1.5385    2.4924 H   0  0  0  0  0  0  0  0  0  0  0  0
   -0.4058    0.0105    1.8476 H   0  0  0  0  0  0  0  0  0  0  0  0
   -2.7580   -3.0515    1.4075 H   0  0  0  0  0  0  0  0  0  0  0  0
   -2.3258   -1.9106    2.7242 H   0  0  0  0  0  0  0  0  0  0  0  0
   -2.9826    0.7855    2.3260 H   0  0  0  0  0  0  0  0  0  0  0  0
   -4.4650   -2.2037   -0.3682 H   0  0  0  0  0  0  0  0  0  0  0  0
   -6.3992   -0.6840   -1.6238 H   0  0  0  0  0  0  0  0  0  0  0  0
   -6.6240    3.3154   -0.1990 H   0  0  0  0  0  0  0  0  0  0  0  0
   -4.7802    2.8774    1.4460 H   0  0  0  0  0  0  0  0  0  0  0  0
    0.0220    0.4957   -1.3570 H   0  0  0  0  0  0  0  0  0  0  0  0
    3.9341   -1.8222   -1.5340 H   0  0  0  0  0  0  0  0  0  0  0  0
    5.5973    3.0352    0.4424 H   0  0  0  0  0  0  0  0  0  0  0  0
    7.4809    1.8314    1.5707 H   0  0  0  0  0  0  0  0  0  0  0  0
    7.6966   -0.6369    1.3073 H   0  0  0  0  0  0  0  0  0  0  0  0
  1  2  1  0
  2  3  1  0
  3  4  1  0
  4  5  1  0
  5  6  1  0
  6  7  2  0
  7  8  1  0
  8  9  2  0
  9 10  1  0
  9 11  1  0
 11 12  2  0
 12 13  1  0
 13 14  2  0
  4 15  1  0
 15 16  2  0
  1 17  1  0
 17 18  1  0
 18 19  2  0
 18 20  2  0
 18 21  1  0
 21 22  2  0
 22 23  1  0
 23 24  2  0
 24 25  1  0
 24 26  1  0
 26 27  2  0
 27 28  1  0
 28 29  2  0
 15  1  1  0
 25 21  1  0
 10  6  1  0
 29 23  1  0
 14  8  1  0
  1 30  1  6
  2 31  1  0
  2 32  1  0
  3 33  1  0
  3 34  1  0
  5 35  1  0
  5 36  1  0
  7 37  1  0
 10 38  1  0
 11 39  1  0
 13 40  1  0
 14 41  1  0
 17 42  1  0
 22 43  1  0
 26 44  1  0
 27 45  1  0
 28 46  1  0
M  END
$$$$
