
     RDKit          3D

 30 30  0  0  0  0  0  0  0  0999 V2000
   -4.9584   -1.4419    0.7904 N   0  0  0  0  0  0  0  0  0  0  0  0
   -3.8603   -0.5443    0.6079 C   0  0  0  0  0  0  0  0  0  0  0  0
   -3.5047    0.3523    1.6256 C   0  0  0  0  0  0  0  0  0  0  0  0
   -2.4306    1.2298    1.4474 C   0  0  0  0  0  0  0  0  0  0  0  0
   -1.7006    1.2161    0.2509 C   0  0  0  0  0  0  0  0  0  0  0  0
   -2.0593    0.3245   -0.7689 C   0  0  0  0  0  0  0  0  0  0  0  0
   -3.1329   -0.5532   -0.5907 C   0  0  0  0  0  0  0  0  0  0  0  0
   -0.3473    2.3178    0.0194 S   0  0  0  0  0  6  0  0  0  0  0  0
   -0.8207    3.5227   -0.7432 O   0  0  0  0  0  0  0  0  0  0  0  0
    0.2043    2.7609    1.3458 O   0  0  0  0  0  0  0  0  0  0  0  0
    0.9090    1.5282   -0.8753 N   0  0  0  0  0  0  0  0  0  0  0  0
    1.5547    0.3484   -0.3866 C   0  0  0  0  0  0  0  0  0  0  0  0
    1.2233   -0.1369    0.7295 O   0  0  0  0  0  0  0  0  0  0  0  0
    2.5726   -0.2833   -1.1741 N   0  0  0  0  0  0  0  0  0  0  0  0
    3.2873   -1.4788   -0.7288 C   0  0  0  0  0  0  0  0  0  0  0  0
    4.3056   -1.1382    0.3612 C   0  0  0  0  0  0  0  0  0  0  0  0
    5.5772    0.0089   -0.2609 S   0  0  0  0  0  0  0  0  0  0  0  0
   -5.2311   -2.1129    0.0379 H   0  0  0  0  0  0  0  0  0  0  0  0
   -5.5065   -1.4422    1.6795 H   0  0  0  0  0  0  0  0  0  0  0  0
   -4.0596    0.3715    2.5552 H   0  0  0  0  0  0  0  0  0  0  0  0
   -2.1709    1.9180    2.2414 H   0  0  0  0  0  0  0  0  0  0  0  0
   -1.5082    0.3084   -1.7006 H   0  0  0  0  0  0  0  0  0  0  0  0
   -3.3981   -1.2388   -1.3857 H   0  0  0  0  0  0  0  0  0  0  0  0
    1.1882    1.9248   -1.7998 H   0  0  0  0  0  0  0  0  0  0  0  0
    2.7762    0.0910   -2.1282 H   0  0  0  0  0  0  0  0  0  0  0  0
    2.5619   -2.2285   -0.3453 H   0  0  0  0  0  0  0  0  0  0  0  0
    3.8159   -1.9368   -1.5928 H   0  0  0  0  0  0  0  0  0  0  0  0
    4.8015   -2.0701    0.7060 H   0  0  0  0  0  0  0  0  0  0  0  0
    3.7970   -0.6752    1.2323 H   0  0  0  0  0  0  0  0  0  0  0  0
    6.1144   -0.9421   -1.1496 H   0  0  0  0  0  0  0  0  0  0  0  0
  1  2  1  0
  2  3  2  0
  3  4  1  0
  4  5  2  0
  5  6  1  0
  6  7  2  0
  5  8  1  0
  8  9  2  0
  8 10  2  0
  8 11  1  0
 11 12  1  0
 12 13  2  0
 12 14  1  0
 14 15  1  0
 15 16  1  0
 16 17  1  0
  7  2  1  0
  1 18  1  0
  1 19  1  0
  3 20  1  0
  4 21  1  0
  6 22  1  0
  7 23  1  0
 11 24  1  0
 14 25  1  0
 15 26  1  0
 15 27  1  0
 16 28  1  0
 16 29  1  0
 17 30  1  0
M  END
$$$$
