
     RDKit          3D

 52 54  0  0  0  0  0  0  0  0999 V2000
    6.6989    2.5660   -0.2914 O   0  0  0  0  0  0  0  0  0  0  0  0
    6.1319    1.9835    0.8378 C   0  0  0  0  0  0  0  0  0  0  0  0
    6.4042    2.4333    1.9830 O   0  0  0  0  0  0  0  0  0  0  0  0
    5.1622    0.8545    0.6864 C   0  0  0  0  0  0  0  0  0  0  0  0
    3.7324    1.3937    0.5494 C   0  0  0  0  0  0  0  0  0  0  0  0
    2.7052    0.2837    0.2753 C   0  0  0  0  0  0  0  0  0  0  0  0
    2.3638   -0.5287    1.5362 C   0  0  0  0  0  0  0  0  0  0  0  0
    1.4396   -1.7262    1.2501 C   0  0  0  0  0  0  0  0  0  0  0  0
    0.0317   -1.3193    0.7842 C   0  0  0  0  0  0  0  0  0  0  0  0
    0.0288   -1.0131   -0.6525 N   0  0  0  0  0  0  0  0  0  0  0  0
   -1.2727   -0.5325   -1.1673 C   0  0  0  0  0  0  0  0  0  0  0  0
   -1.4588    0.9304   -0.7570 C   0  0  0  0  0  0  0  0  0  0  0  0
   -0.7045    1.8839   -1.4770 C   0  0  0  0  0  0  0  0  0  0  0  0
   -0.6674    3.2227   -1.0902 C   0  0  0  0  0  0  0  0  0  0  0  0
   -1.3677    3.6414    0.0352 C   0  0  0  0  0  0  0  0  0  0  0  0
   -2.1123    2.7233    0.7720 C   0  0  0  0  0  0  0  0  0  0  0  0
   -2.1638    1.3671    0.3948 C   0  0  0  0  0  0  0  0  0  0  0  0
   -3.0636    0.4488    1.1651 C   0  0  0  0  0  0  0  0  0  0  0  0
   -4.1152   -0.1207    0.2273 C   0  0  0  0  0  0  0  0  0  0  0  0
   -3.6603   -1.4139   -0.3911 C   0  0  0  0  0  0  0  0  0  0  0  0
   -4.5807   -2.4827   -0.3735 C   0  0  0  0  0  0  0  0  0  0  0  0
   -4.2836   -3.6995   -0.9778 C   0  0  0  0  0  0  0  0  0  0  0  0
   -3.0734   -3.8679   -1.6342 C   0  0  0  0  0  0  0  0  0  0  0  0
   -2.1504   -2.8255   -1.6742 C   0  0  0  0  0  0  0  0  0  0  0  0
   -2.3962   -1.5857   -1.0357 C   0  0  0  0  0  0  0  0  0  0  0  0
    7.3445    3.3420   -0.2068 H   0  0  0  0  0  0  0  0  0  0  0  0
    5.4329    0.2665   -0.2171 H   0  0  0  0  0  0  0  0  0  0  0  0
    5.2447    0.1888    1.5709 H   0  0  0  0  0  0  0  0  0  0  0  0
    3.7026    2.1072   -0.3040 H   0  0  0  0  0  0  0  0  0  0  0  0
    3.4471    1.9554    1.4664 H   0  0  0  0  0  0  0  0  0  0  0  0
    1.7809    0.7763   -0.0925 H   0  0  0  0  0  0  0  0  0  0  0  0
    3.0772   -0.3890   -0.5283 H   0  0  0  0  0  0  0  0  0  0  0  0
    3.2965   -0.9308    1.9832 H   0  0  0  0  0  0  0  0  0  0  0  0
    1.8909    0.1358    2.2922 H   0  0  0  0  0  0  0  0  0  0  0  0
    1.9151   -2.4087    0.5123 H   0  0  0  0  0  0  0  0  0  0  0  0
    1.3336   -2.3003    2.1965 H   0  0  0  0  0  0  0  0  0  0  0  0
   -0.2826   -0.4329    1.3698 H   0  0  0  0  0  0  0  0  0  0  0  0
   -0.6695   -2.1569    0.9937 H   0  0  0  0  0  0  0  0  0  0  0  0
    0.3457   -1.8540   -1.1866 H   0  0  0  0  0  0  0  0  0  0  0  0
   -1.1526   -0.4772   -2.2743 H   0  0  0  0  0  0  0  0  0  0  0  0
   -0.1147    1.5836   -2.3348 H   0  0  0  0  0  0  0  0  0  0  0  0
   -0.0810    3.9340   -1.6575 H   0  0  0  0  0  0  0  0  0  0  0  0
   -1.3363    4.6805    0.3368 H   0  0  0  0  0  0  0  0  0  0  0  0
   -2.6595    3.0782    1.6368 H   0  0  0  0  0  0  0  0  0  0  0  0
   -2.4935   -0.3587    1.6665 H   0  0  0  0  0  0  0  0  0  0  0  0
   -3.5823    1.0037    1.9783 H   0  0  0  0  0  0  0  0  0  0  0  0
   -5.0418   -0.2788    0.8232 H   0  0  0  0  0  0  0  0  0  0  0  0
   -4.3862    0.5991   -0.5772 H   0  0  0  0  0  0  0  0  0  0  0  0
   -5.5467   -2.3743    0.1049 H   0  0  0  0  0  0  0  0  0  0  0  0
   -5.0032   -4.5078   -0.9531 H   0  0  0  0  0  0  0  0  0  0  0  0
   -2.8516   -4.8066   -2.1255 H   0  0  0  0  0  0  0  0  0  0  0  0
   -1.2382   -2.9917   -2.2312 H   0  0  0  0  0  0  0  0  0  0  0  0
  1  2  1  0
  2  3  2  0
  2  4  1  0
  4  5  1  0
  5  6  1  0
  6  7  1  0
  7  8  1  0
  8  9  1  0
  9 10  1  0
 10 11  1  0
 11 12  1  0
 12 13  2  0
 13 14  1  0
 14 15  2  0
 15 16  1  0
 16 17  2  0
 17 18  1  0
 18 19  1  0
 19 20  1  0
 20 21  2  0
 21 22  1  0
 22 23  2  0
 23 24  1  0
 24 25  2  0
 25 11  1  0
 17 12  1  0
 25 20  1  0
  1 26  1  0
  4 27  1  0
  4 28  1  0
  5 29  1  0
  5 30  1  0
  6 31  1  0
  6 32  1  0
  7 33  1  0
  7 34  1  0
  8 35  1  0
  8 36  1  0
  9 37  1  0
  9 38  1  0
 10 39  1  0
 11 40  1  0
 13 41  1  0
 14 42  1  0
 15 43  1  0
 16 44  1  0
 18 45  1  0
 18 46  1  0
 19 47  1  0
 19 48  1  0
 21 49  1  0
 22 50  1  0
 23 51  1  0
 24 52  1  0
M  END
$$$$
