
     RDKit          3D

 55 58  0  0  0  0  0  0  0  0999 V2000
   -3.9821   -3.7628   -0.2565 C   0  0  0  0  0  0  0  0  0  0  0  0
   -4.4764   -2.4243    0.3307 C   0  0  0  0  0  0  0  0  0  0  0  0
   -4.9801   -2.6705    1.7667 C   0  0  0  0  0  0  0  0  0  0  0  0
   -5.6284   -1.8855   -0.5355 C   0  0  0  0  0  0  0  0  0  0  0  0
   -3.3522   -1.4053    0.3443 C   0  0  0  0  0  0  0  0  0  0  0  0
   -2.2331   -1.5067   -0.4100 N   0  0  0  0  0  0  0  0  0  0  0  0
   -1.4136   -0.4273   -0.2832 C   0  0  0  0  0  0  0  0  0  0  0  0
   -1.8845    0.5654    0.5889 C   0  0  0  0  0  0  0  0  0  0  0  0
   -3.3796    0.0633    1.1725 S   0  0  0  0  0  0  0  0  0  0  0  0
   -1.2179    1.8167    1.0015 C   0  0  0  0  0  0  0  0  0  0  0  0
   -1.9765    2.9140    1.2670 N   0  0  0  0  0  0  0  0  0  0  0  0
   -1.4120    4.0844    1.6668 C   0  0  0  0  0  0  0  0  0  0  0  0
   -2.2333    5.2198    1.9279 N   0  0  0  0  0  0  0  0  0  0  0  0
   -0.0642    4.1701    1.8190 N   0  0  0  0  0  0  0  0  0  0  0  0
    0.7334    3.0970    1.5833 C   0  0  0  0  0  0  0  0  0  0  0  0
    0.1721    1.8877    1.1768 C   0  0  0  0  0  0  0  0  0  0  0  0
   -0.1798   -0.3215   -1.0831 C   0  0  0  0  0  0  0  0  0  0  0  0
    0.7790   -1.3479   -1.0444 C   0  0  0  0  0  0  0  0  0  0  0  0
    0.5689   -2.4425   -0.2677 F   0  0  0  0  0  0  0  0  0  0  0  0
    1.9930   -1.2068   -1.7372 C   0  0  0  0  0  0  0  0  0  0  0  0
    3.0168   -2.2018   -1.5948 N   0  0  0  0  0  0  0  0  0  0  0  0
    4.6824   -1.7566   -1.4071 S   0  0  0  0  0  6  0  0  0  0  0  0
    5.3016   -1.5977   -2.7673 O   0  0  0  0  0  0  0  0  0  0  0  0
    5.4096   -2.8410   -0.6635 O   0  0  0  0  0  0  0  0  0  0  0  0
    4.7792   -0.2607   -0.4669 C   0  0  0  0  0  0  0  0  0  0  0  0
    5.4775    0.8636   -0.9469 C   0  0  0  0  0  0  0  0  0  0  0  0
    6.1428    0.8235   -2.1279 F   0  0  0  0  0  0  0  0  0  0  0  0
    5.4871    2.0509   -0.2070 C   0  0  0  0  0  0  0  0  0  0  0  0
    4.8052    2.1278    1.0093 C   0  0  0  0  0  0  0  0  0  0  0  0
    4.1162    1.0149    1.4948 C   0  0  0  0  0  0  0  0  0  0  0  0
    4.1038   -0.1767    0.7641 C   0  0  0  0  0  0  0  0  0  0  0  0
    3.4230   -1.2442    1.2525 F   0  0  0  0  0  0  0  0  0  0  0  0
    2.2120   -0.0610   -2.5201 C   0  0  0  0  0  0  0  0  0  0  0  0
    1.2435    0.9412   -2.5898 C   0  0  0  0  0  0  0  0  0  0  0  0
    0.0545    0.8165   -1.8708 C   0  0  0  0  0  0  0  0  0  0  0  0
   -3.1309   -4.1592    0.3388 H   0  0  0  0  0  0  0  0  0  0  0  0
   -4.7958   -4.5201   -0.2488 H   0  0  0  0  0  0  0  0  0  0  0  0
   -3.6453   -3.6330   -1.3080 H   0  0  0  0  0  0  0  0  0  0  0  0
   -5.4073   -1.7429    2.2046 H   0  0  0  0  0  0  0  0  0  0  0  0
   -4.1471   -3.0148    2.4173 H   0  0  0  0  0  0  0  0  0  0  0  0
   -5.7753   -3.4471    1.7755 H   0  0  0  0  0  0  0  0  0  0  0  0
   -6.4652   -2.6161   -0.5734 H   0  0  0  0  0  0  0  0  0  0  0  0
   -6.0192   -0.9309   -0.1213 H   0  0  0  0  0  0  0  0  0  0  0  0
   -5.2800   -1.6975   -1.5744 H   0  0  0  0  0  0  0  0  0  0  0  0
   -1.8064    6.1216    2.2358 H   0  0  0  0  0  0  0  0  0  0  0  0
   -3.2695    5.1601    1.8135 H   0  0  0  0  0  0  0  0  0  0  0  0
    1.8031    3.1806    1.7209 H   0  0  0  0  0  0  0  0  0  0  0  0
    0.8096    1.0265    1.0264 H   0  0  0  0  0  0  0  0  0  0  0  0
    2.7505   -3.1778   -1.3357 H   0  0  0  0  0  0  0  0  0  0  0  0
    6.0211    2.9158   -0.5794 H   0  0  0  0  0  0  0  0  0  0  0  0
    4.8109    3.0499    1.5759 H   0  0  0  0  0  0  0  0  0  0  0  0
    3.5874    1.0776    2.4372 H   0  0  0  0  0  0  0  0  0  0  0  0
    3.1332    0.0599   -3.0742 H   0  0  0  0  0  0  0  0  0  0  0  0
    1.4202    1.8223   -3.1931 H   0  0  0  0  0  0  0  0  0  0  0  0
   -0.6819    1.6091   -1.9238 H   0  0  0  0  0  0  0  0  0  0  0  0
  1  2  1  0
  2  3  1  0
  2  4  1  0
  2  5  1  0
  5  6  2  0
  6  7  1  0
  7  8  2  0
  8  9  1  0
  8 10  1  0
 10 11  2  0
 11 12  1  0
 12 13  1  0
 12 14  2  0
 14 15  1  0
 15 16  2  0
  7 17  1  0
 17 18  2  0
 18 19  1  0
 18 20  1  0
 20 21  1  0
 21 22  1  0
 22 23  2  0
 22 24  2  0
 22 25  1  0
 25 26  2  0
 26 27  1  0
 26 28  1  0
 28 29  2  0
 29 30  1  0
 30 31  2  0
 31 32  1  0
 20 33  2  0
 33 34  1  0
 34 35  2  0
  9  5  1  0
 16 10  1  0
 35 17  1  0
 31 25  1  0
  1 36  1  0
  1 37  1  0
  1 38  1  0
  3 39  1  0
  3 40  1  0
  3 41  1  0
  4 42  1  0
  4 43  1  0
  4 44  1  0
 13 45  1  0
 13 46  1  0
 15 47  1  0
 16 48  1  0
 21 49  1  0
 28 50  1  0
 29 51  1  0
 30 52  1  0
 33 53  1  0
 34 54  1  0
 35 55  1  0
M  END
$$$$
