
     RDKit          3D

 81 83  0  0  0  0  0  0  0  0999 V2000
   -1.4378   -1.3169    2.2179 C   0  0  0  0  0  0  0  0  0  0  0  0
   -0.5720   -2.3606    2.1018 C   0  0  0  0  0  0  0  0  0  0  0  0
   -0.5469   -3.6004    1.2128 C   0  0  1  0  0  0  0  0  0  0  0  0
   -1.8231   -4.2141    1.1904 O   0  0  0  0  0  0  0  0  0  0  0  0
   -1.7325   -5.6069    1.4012 C   0  0  0  0  0  0  0  0  0  0  0  0
   -0.0266   -3.3684   -0.2339 C   0  0  2  0  0  0  0  0  0  0  0  0
    1.5073   -3.1448   -0.3391 C   0  0  0  0  0  0  0  0  0  0  0  0
    2.0527   -1.9847    0.5135 C   0  0  0  0  0  0  0  0  0  0  0  0
    3.3985   -1.4320   -0.0097 C   0  0  0  0  0  0  0  0  0  0  0  0
    3.2344   -0.2415   -0.9797 C   0  0  0  0  0  0  0  0  0  0  0  0
    2.8694    1.0776   -0.2598 C   0  0  2  0  0  0  0  0  0  0  0  0
    2.3918    2.0362   -1.2146 O   0  0  0  0  0  0  0  0  0  0  0  0
    1.2838    2.8926   -1.0535 C   0  0  0  0  0  0  0  0  0  0  0  0
    1.1891    3.8822   -1.8274 O   0  0  0  0  0  0  0  0  0  0  0  0
    0.1604    2.6106   -0.0622 C   0  0  1  0  0  0  0  0  0  0  0  0
   -0.5657    3.8943    0.3813 C   0  0  0  0  0  0  0  0  0  0  0  0
   -0.8001    1.4567   -0.5321 C   0  0  1  0  0  0  0  0  0  0  0  0
   -0.0100    0.4050   -1.0399 O   0  0  0  0  0  0  0  0  0  0  0  0
   -1.4362    0.9706    0.6495 O   0  0  0  0  0  0  0  0  0  0  0  0
   -2.4999    0.0866    0.3402 C   0  0  2  0  0  0  0  0  0  0  0  0
   -3.7268    0.9406   -0.1102 C   0  0  1  0  0  0  0  0  0  0  0  0
   -4.5801    1.4700    1.0576 C   0  0  0  0  0  0  0  0  0  0  0  0
   -3.2480    2.1429   -0.9871 C   0  0  2  0  0  0  0  0  0  0  0  0
   -4.1843    2.3967   -2.0039 O   0  0  0  0  0  0  0  0  0  0  0  0
   -1.8722    1.8687   -1.6303 C   0  0  1  0  0  0  0  0  0  0  0  0
   -1.4563    3.0079   -2.3696 O   0  0  0  0  0  0  0  0  0  0  0  0
   -1.2954    2.7032   -3.7375 C   0  0  0  0  0  0  0  0  0  0  0  0
   -2.7352   -0.9183    1.5071 C   0  0  1  0  0  0  0  0  0  0  0  0
   -3.6521   -2.0749    1.0990 C   0  0  0  0  0  0  0  0  0  0  0  0
    4.0569    1.6560    0.4763 C   0  0  0  0  0  0  0  0  0  0  0  0
    5.1206    2.2423   -0.2334 C   0  0  0  0  0  0  0  0  0  0  0  0
    6.2216    2.7667    0.4503 C   0  0  0  0  0  0  0  0  0  0  0  0
    6.2727    2.7088    1.8453 C   0  0  0  0  0  0  0  0  0  0  0  0
    5.2230    2.1255    2.5593 C   0  0  0  0  0  0  0  0  0  0  0  0
    4.1195    1.6000    1.8803 C   0  0  0  0  0  0  0  0  0  0  0  0
   -0.7117   -2.2887   -0.8334 O   0  0  0  0  0  0  0  0  0  0  0  0
   -1.0947   -2.5982   -2.1571 C   0  0  0  0  0  0  0  0  0  0  0  0
   -1.1526   -0.5961    2.9823 H   0  0  0  0  0  0  0  0  0  0  0  0
    0.2401   -2.3384    2.8253 H   0  0  0  0  0  0  0  0  0  0  0  0
    0.2131   -4.2660    1.6950 H   0  0  0  0  0  0  0  0  0  0  0  0
   -1.3826   -5.8250    2.4341 H   0  0  0  0  0  0  0  0  0  0  0  0
   -2.7434   -6.0486    1.2859 H   0  0  0  0  0  0  0  0  0  0  0  0
   -1.0643   -6.0895    0.6544 H   0  0  0  0  0  0  0  0  0  0  0  0
   -0.2158   -4.3328   -0.7676 H   0  0  0  0  0  0  0  0  0  0  0  0
    2.0341   -4.0798   -0.0468 H   0  0  0  0  0  0  0  0  0  0  0  0
    1.7542   -2.9625   -1.4073 H   0  0  0  0  0  0  0  0  0  0  0  0
    2.2186   -2.3634    1.5445 H   0  0  0  0  0  0  0  0  0  0  0  0
    1.2972   -1.1802    0.5767 H   0  0  0  0  0  0  0  0  0  0  0  0
    3.9644   -2.2418   -0.5204 H   0  0  0  0  0  0  0  0  0  0  0  0
    4.0239   -1.1170    0.8530 H   0  0  0  0  0  0  0  0  0  0  0  0
    4.1794   -0.1057   -1.5491 H   0  0  0  0  0  0  0  0  0  0  0  0
    2.4505   -0.4914   -1.7258 H   0  0  0  0  0  0  0  0  0  0  0  0
    2.0832    0.8385    0.4704 H   0  0  0  0  0  0  0  0  0  0  0  0
    0.6351    2.2742    0.8805 H   0  0  0  0  0  0  0  0  0  0  0  0
    0.1617    4.5901    0.8524 H   0  0  0  0  0  0  0  0  0  0  0  0
   -1.3403    3.6539    1.1401 H   0  0  0  0  0  0  0  0  0  0  0  0
   -1.0412    4.4302   -0.4629 H   0  0  0  0  0  0  0  0  0  0  0  0
    0.2598    0.6276   -1.9684 H   0  0  0  0  0  0  0  0  0  0  0  0
   -2.2421   -0.5436   -0.5308 H   0  0  0  0  0  0  0  0  0  0  0  0
   -4.3807    0.2866   -0.7305 H   0  0  0  0  0  0  0  0  0  0  0  0
   -5.3357    2.1957    0.6898 H   0  0  0  0  0  0  0  0  0  0  0  0
   -3.9396    1.9778    1.8103 H   0  0  0  0  0  0  0  0  0  0  0  0
   -5.1432    0.6455    1.5411 H   0  0  0  0  0  0  0  0  0  0  0  0
   -3.1379    3.0542   -0.3551 H   0  0  0  0  0  0  0  0  0  0  0  0
   -4.9342    2.8977   -1.5898 H   0  0  0  0  0  0  0  0  0  0  0  0
   -2.0390    0.9747   -2.2850 H   0  0  0  0  0  0  0  0  0  0  0  0
   -0.5122    1.9277   -3.8843 H   0  0  0  0  0  0  0  0  0  0  0  0
   -2.2586    2.3764   -4.1880 H   0  0  0  0  0  0  0  0  0  0  0  0
   -0.9665    3.6198   -4.2681 H   0  0  0  0  0  0  0  0  0  0  0  0
   -3.2882   -0.3806    2.3035 H   0  0  0  0  0  0  0  0  0  0  0  0
   -4.6678   -1.6891    0.8719 H   0  0  0  0  0  0  0  0  0  0  0  0
   -3.7549   -2.8001    1.9334 H   0  0  0  0  0  0  0  0  0  0  0  0
   -3.2813   -2.5744    0.1814 H   0  0  0  0  0  0  0  0  0  0  0  0
    5.0966    2.2929   -1.3149 H   0  0  0  0  0  0  0  0  0  0  0  0
    7.0361    3.2174   -0.1019 H   0  0  0  0  0  0  0  0  0  0  0  0
    7.1261    3.1148    2.3728 H   0  0  0  0  0  0  0  0  0  0  0  0
    5.2647    2.0792    3.6399 H   0  0  0  0  0  0  0  0  0  0  0  0
    3.3169    1.1475    2.4496 H   0  0  0  0  0  0  0  0  0  0  0  0
   -1.8698   -3.3956   -2.1635 H   0  0  0  0  0  0  0  0  0  0  0  0
   -0.2211   -2.8990   -2.7762 H   0  0  0  0  0  0  0  0  0  0  0  0
   -1.5370   -1.6930   -2.6211 H   0  0  0  0  0  0  0  0  0  0  0  0
  1  2  2  0
  2  3  1  0
  3  4  1  0
  4  5  1  0
  3  6  1  0
  6  7  1  0
  7  8  1  0
  8  9  1  0
  9 10  1  0
 10 11  1  0
 11 12  1  0
 12 13  1  0
 13 14  2  0
 13 15  1  0
 15 16  1  0
 15 17  1  0
 17 18  1  6
 17 19  1  0
 19 20  1  0
 20 21  1  0
 21 22  1  0
 21 23  1  0
 23 24  1  0
 23 25  1  0
 25 26  1  0
 26 27  1  0
 20 28  1  0
 28 29  1  0
 11 30  1  0
 30 31  2  0
 31 32  1  0
 32 33  2  0
 33 34  1  0
 34 35  2  0
  6 36  1  0
 36 37  1  0
 28  1  1  0
 35 30  1  0
 25 17  1  0
  1 38  1  0
  2 39  1  0
  3 40  1  1
  5 41  1  0
  5 42  1  0
  5 43  1  0
  6 44  1  6
  7 45  1  0
  7 46  1  0
  8 47  1  0
  8 48  1  0
  9 49  1  0
  9 50  1  0
 10 51  1  0
 10 52  1  0
 11 53  1  1
 15 54  1  1
 16 55  1  0
 16 56  1  0
 16 57  1  0
 18 58  1  0
 20 59  1  6
 21 60  1  6
 22 61  1  0
 22 62  1  0
 22 63  1  0
 23 64  1  1
 24 65  1  0
 25 66  1  6
 27 67  1  0
 27 68  1  0
 27 69  1  0
 28 70  1  1
 29 71  1  0
 29 72  1  0
 29 73  1  0
 31 74  1  0
 32 75  1  0
 33 76  1  0
 34 77  1  0
 35 78  1  0
 37 79  1  0
 37 80  1  0
 37 81  1  0
M  END
$$$$
