
     RDKit          3D

 43 45  0  0  0  0  0  0  0  0999 V2000
    7.1957    0.7880    2.1127 C   0  0  0  0  0  0  0  0  0  0  0  0
    7.1935    0.5774    0.7045 O   0  0  0  0  0  0  0  0  0  0  0  0
    6.0641    0.1980   -0.0352 C   0  0  0  0  0  0  0  0  0  0  0  0
    4.7999   -0.0128    0.5714 C   0  0  0  0  0  0  0  0  0  0  0  0
    3.7413   -0.3877   -0.2520 C   0  0  0  0  0  0  0  0  0  0  0  0
    3.8870   -0.5531   -1.5960 C   0  0  0  0  0  0  0  0  0  0  0  0
    5.1095   -0.3563   -2.2300 C   0  0  0  0  0  0  0  0  0  0  0  0
    6.2063    0.0236   -1.4336 C   0  0  0  0  0  0  0  0  0  0  0  0
    2.7184   -0.9142   -2.1560 N   0  0  0  0  0  0  0  0  0  0  0  0
    1.8799   -0.9545   -1.0880 C   0  0  0  0  0  0  0  0  0  0  0  0
    2.4721   -0.6388    0.0892 N   0  0  0  0  0  0  0  0  0  0  0  0
    0.1630   -1.3777   -1.2321 S   0  0  0  0  0  4  0  0  0  0  0  0
   -0.0343   -2.4642   -0.1833 O   0  0  0  0  0  0  0  0  0  0  0  0
   -0.7147    0.0630   -0.5748 C   0  0  0  0  0  0  0  0  0  0  0  0
   -2.2145   -0.1137   -0.6220 C   0  0  0  0  0  0  0  0  0  0  0  0
   -2.7511   -0.9300   -1.5703 N   0  0  0  0  0  0  0  0  0  0  0  0
   -4.0868   -1.1240   -1.6989 C   0  0  0  0  0  0  0  0  0  0  0  0
   -4.9789   -0.4710   -0.8436 C   0  0  0  0  0  0  0  0  0  0  0  0
   -6.4561   -0.7232   -0.9568 C   0  0  0  0  0  0  0  0  0  0  0  0
   -4.4679    0.3790    0.1514 C   0  0  0  0  0  0  0  0  0  0  0  0
   -5.3508    1.0041    1.0371 O   0  0  0  0  0  0  0  0  0  0  0  0
   -5.5840    0.4856    2.3406 C   0  0  0  0  0  0  0  0  0  0  0  0
   -3.0768    0.6067    0.2406 C   0  0  0  0  0  0  0  0  0  0  0  0
   -2.5287    1.5800    1.2565 C   0  0  0  0  0  0  0  0  0  0  0  0
    8.2166    1.0792    2.4342 H   0  0  0  0  0  0  0  0  0  0  0  0
    6.4924    1.6056    2.3775 H   0  0  0  0  0  0  0  0  0  0  0  0
    6.9100   -0.1472    2.6390 H   0  0  0  0  0  0  0  0  0  0  0  0
    4.6430    0.1083    1.6346 H   0  0  0  0  0  0  0  0  0  0  0  0
    5.2147   -0.4902   -3.2988 H   0  0  0  0  0  0  0  0  0  0  0  0
    7.1701    0.1839   -1.8996 H   0  0  0  0  0  0  0  0  0  0  0  0
    2.0403   -0.6007    1.0392 H   0  0  0  0  0  0  0  0  0  0  0  0
   -0.3717    0.2133    0.4699 H   0  0  0  0  0  0  0  0  0  0  0  0
   -0.4373    0.9556   -1.1735 H   0  0  0  0  0  0  0  0  0  0  0  0
   -4.4502   -1.7943   -2.4672 H   0  0  0  0  0  0  0  0  0  0  0  0
   -7.0155    0.2332   -0.8824 H   0  0  0  0  0  0  0  0  0  0  0  0
   -6.7118   -1.1926   -1.9306 H   0  0  0  0  0  0  0  0  0  0  0  0
   -6.7802   -1.3998   -0.1387 H   0  0  0  0  0  0  0  0  0  0  0  0
   -4.6379    0.4571    2.9203 H   0  0  0  0  0  0  0  0  0  0  0  0
   -6.0053   -0.5394    2.2705 H   0  0  0  0  0  0  0  0  0  0  0  0
   -6.3097    1.1379    2.8677 H   0  0  0  0  0  0  0  0  0  0  0  0
   -3.3065    2.2854    1.6151 H   0  0  0  0  0  0  0  0  0  0  0  0
   -1.7241    2.1991    0.8073 H   0  0  0  0  0  0  0  0  0  0  0  0
   -2.1230    1.0214    2.1257 H   0  0  0  0  0  0  0  0  0  0  0  0
  1  2  1  0
  2  3  1  0
  3  4  2  0
  4  5  1  0
  5  6  2  0
  6  7  1  0
  7  8  2  0
  6  9  1  0
  9 10  2  0
 10 11  1  0
 10 12  1  0
 12 13  2  0
 12 14  1  0
 14 15  1  0
 15 16  2  0
 16 17  1  0
 17 18  2  0
 18 19  1  0
 18 20  1  0
 20 21  1  0
 21 22  1  0
 20 23  2  0
 23 24  1  0
  8  3  1  0
 23 15  1  0
 11  5  1  0
  1 25  1  0
  1 26  1  0
  1 27  1  0
  4 28  1  0
  7 29  1  0
  8 30  1  0
 11 31  1  0
 14 32  1  0
 14 33  1  0
 17 34  1  0
 19 35  1  0
 19 36  1  0
 19 37  1  0
 22 38  1  0
 22 39  1  0
 22 40  1  0
 24 41  1  0
 24 42  1  0
 24 43  1  0
M  END
$$$$
