
     RDKit          3D

 46 47  0  0  0  0  0  0  0  0999 V2000
    5.3336   -0.0256   -0.8067 C   0  0  0  0  0  0  0  0  0  0  0  0
    4.4558    0.2637    0.3390 N   0  0  0  0  0  0  0  0  0  0  0  0
    4.9812   -0.4129    1.5384 C   0  0  0  0  0  0  0  0  0  0  0  0
    3.0724   -0.1709    0.0459 C   0  0  0  0  0  0  0  0  0  0  0  0
    2.0652    0.6249    0.8830 C   0  0  0  0  0  0  0  0  0  0  0  0
    0.7315    0.2714    0.5242 O   0  0  0  0  0  0  0  0  0  0  0  0
    0.0903    0.7365   -0.6304 C   0  0  0  0  0  0  0  0  0  0  0  0
    0.6636    1.5781   -1.3762 O   0  0  0  0  0  0  0  0  0  0  0  0
   -1.2960    0.2478   -0.9946 C   0  0  0  0  0  0  0  0  0  0  0  0
   -1.4029   -1.2695   -0.8833 C   0  0  0  0  0  0  0  0  0  0  0  0
   -1.2266   -1.9411    0.3444 C   0  0  0  0  0  0  0  0  0  0  0  0
   -1.3418   -3.3323    0.4170 C   0  0  0  0  0  0  0  0  0  0  0  0
   -1.6376   -4.0725   -0.7286 C   0  0  0  0  0  0  0  0  0  0  0  0
   -1.8195   -3.4229   -1.9503 C   0  0  0  0  0  0  0  0  0  0  0  0
   -1.7049   -2.0319   -2.0294 C   0  0  0  0  0  0  0  0  0  0  0  0
   -2.4706    0.9964   -0.2704 C   0  0  0  0  0  0  0  0  0  0  0  0
   -3.7019    0.4161   -0.6442 O   0  0  0  0  0  0  0  0  0  0  0  0
   -2.3967    0.9858    1.2616 C   0  0  0  0  0  0  0  0  0  0  0  0
   -3.1732    2.2144    1.7274 C   0  0  0  0  0  0  0  0  0  0  0  0
   -3.2793    3.1527    0.5275 C   0  0  0  0  0  0  0  0  0  0  0  0
   -2.5028    2.4958   -0.6052 C   0  0  0  0  0  0  0  0  0  0  0  0
    5.3267   -1.1107   -1.0553 H   0  0  0  0  0  0  0  0  0  0  0  0
    5.0036    0.5534   -1.6960 H   0  0  0  0  0  0  0  0  0  0  0  0
    6.3762    0.2903   -0.5854 H   0  0  0  0  0  0  0  0  0  0  0  0
    5.0047   -1.5176    1.4039 H   0  0  0  0  0  0  0  0  0  0  0  0
    4.3644   -0.1692    2.4273 H   0  0  0  0  0  0  0  0  0  0  0  0
    6.0109   -0.0569    1.7581 H   0  0  0  0  0  0  0  0  0  0  0  0
    2.9391   -1.2614    0.2304 H   0  0  0  0  0  0  0  0  0  0  0  0
    2.8280    0.0087   -1.0250 H   0  0  0  0  0  0  0  0  0  0  0  0
    2.2014    0.3897    1.9578 H   0  0  0  0  0  0  0  0  0  0  0  0
    2.2231    1.7174    0.7483 H   0  0  0  0  0  0  0  0  0  0  0  0
   -1.4162    0.5024   -2.0728 H   0  0  0  0  0  0  0  0  0  0  0  0
   -0.9953   -1.3995    1.2496 H   0  0  0  0  0  0  0  0  0  0  0  0
   -1.2017   -3.8371    1.3641 H   0  0  0  0  0  0  0  0  0  0  0  0
   -1.7267   -5.1496   -0.6694 H   0  0  0  0  0  0  0  0  0  0  0  0
   -2.0510   -3.9974   -2.8379 H   0  0  0  0  0  0  0  0  0  0  0  0
   -1.8547   -1.5519   -2.9884 H   0  0  0  0  0  0  0  0  0  0  0  0
   -3.7806    0.4724   -1.6328 H   0  0  0  0  0  0  0  0  0  0  0  0
   -1.3517    1.0815    1.6195 H   0  0  0  0  0  0  0  0  0  0  0  0
   -2.8395    0.0600    1.6891 H   0  0  0  0  0  0  0  0  0  0  0  0
   -2.6485    2.7111    2.5728 H   0  0  0  0  0  0  0  0  0  0  0  0
   -4.1901    1.9159    2.0654 H   0  0  0  0  0  0  0  0  0  0  0  0
   -4.3455    3.2696    0.2327 H   0  0  0  0  0  0  0  0  0  0  0  0
   -2.8603    4.1552    0.7641 H   0  0  0  0  0  0  0  0  0  0  0  0
   -2.9785    2.6966   -1.5900 H   0  0  0  0  0  0  0  0  0  0  0  0
   -1.4772    2.9228   -0.6190 H   0  0  0  0  0  0  0  0  0  0  0  0
  1  2  1  0
  2  3  1  0
  2  4  1  0
  4  5  1  0
  5  6  1  0
  6  7  1  0
  7  8  2  0
  7  9  1  0
  9 10  1  0
 10 11  2  0
 11 12  1  0
 12 13  2  0
 13 14  1  0
 14 15  2  0
  9 16  1  0
 16 17  1  0
 16 18  1  0
 18 19  1  0
 19 20  1  0
 20 21  1  0
 15 10  1  0
 21 16  1  0
  1 22  1  0
  1 23  1  0
  1 24  1  0
  3 25  1  0
  3 26  1  0
  3 27  1  0
  4 28  1  0
  4 29  1  0
  5 30  1  0
  5 31  1  0
  9 32  1  0
 11 33  1  0
 12 34  1  0
 13 35  1  0
 14 36  1  0
 15 37  1  0
 17 38  1  0
 18 39  1  0
 18 40  1  0
 19 41  1  0
 19 42  1  0
 20 43  1  0
 20 44  1  0
 21 45  1  0
 21 46  1  0
M  END
$$$$
