
     RDKit          3D

 62 66  0  0  0  0  0  0  0  0999 V2000
    7.5276   -1.7665   -1.2242 N   0  0  0  0  0  0  0  0  0  0  0  0
    6.6448   -2.5576   -0.3704 C   0  0  0  0  0  0  0  0  0  0  0  0
    5.2479   -1.9116   -0.2764 C   0  0  0  0  0  0  0  0  0  0  0  0
    4.2533   -2.8841    0.4026 C   0  0  0  0  0  0  0  0  0  0  0  0
    3.1157   -2.1177    1.0810 C   0  0  0  0  0  0  0  0  0  0  0  0
    3.6336   -1.2710    2.1800 N   0  0  0  0  0  0  0  0  0  0  0  0
    2.6206   -0.3348    2.7118 C   0  0  0  0  0  0  0  0  0  0  0  0
    2.2548    0.7571    1.7386 C   0  0  0  0  0  0  0  0  0  0  0  0
    2.9408    1.8145    1.7080 O   0  0  0  0  0  0  0  0  0  0  0  0
    1.1146    0.6046    0.8787 N   0  0  0  0  0  0  0  0  0  0  0  0
    0.8171    1.4892   -0.2140 C   0  0  0  0  0  0  0  0  0  0  0  0
    1.8394    2.0123   -1.0390 C   0  0  0  0  0  0  0  0  0  0  0  0
    1.5281    2.8267   -2.1472 C   0  0  0  0  0  0  0  0  0  0  0  0
    0.1942    3.1330   -2.4564 C   0  0  0  0  0  0  0  0  0  0  0  0
   -0.8028    2.6220   -1.6317 C   0  0  0  0  0  0  0  0  0  0  0  0
   -0.5085    1.8075   -0.5441 C   0  0  0  0  0  0  0  0  0  0  0  0
   -1.7833    1.3798    0.0532 C   0  0  0  0  0  0  0  0  0  0  0  0
   -1.9499    0.5736    1.0055 O   0  0  0  0  0  0  0  0  0  0  0  0
   -2.8295    2.0223   -0.7339 C   0  0  0  0  0  0  0  0  0  0  0  0
   -4.0186    1.5605   -1.2580 C   0  0  0  0  0  0  0  0  0  0  0  0
   -4.1208    2.0530   -2.5191 N   0  0  0  0  0  0  0  0  0  0  0  0
   -3.0173    2.7228   -2.8354 N   0  0  0  0  0  0  0  0  0  0  0  0
   -2.2528    2.7440   -1.7300 C   0  0  0  0  0  0  0  0  0  0  0  0
   -4.9048    0.5027   -0.6369 C   0  0  0  0  0  0  0  0  0  0  0  0
   -6.0115    0.0149   -1.5948 C   0  0  0  0  0  0  0  0  0  0  0  0
   -6.8912   -1.0474   -0.9237 C   0  0  0  0  0  0  0  0  0  0  0  0
   -7.5036   -0.5122    0.3757 C   0  0  0  0  0  0  0  0  0  0  0  0
   -6.4133   -0.0201    1.3343 C   0  0  0  0  0  0  0  0  0  0  0  0
   -5.5282    1.0400    0.6664 C   0  0  0  0  0  0  0  0  0  0  0  0
    4.9612   -0.6506    1.9330 C   0  0  0  0  0  0  0  0  0  0  0  0
    5.2939   -0.5343    0.4376 C   0  0  0  0  0  0  0  0  0  0  0  0
    7.1935   -1.8543   -2.2115 H   0  0  0  0  0  0  0  0  0  0  0  0
    8.4770   -2.2036   -1.1922 H   0  0  0  0  0  0  0  0  0  0  0  0
    7.0895   -2.6368    0.6463 H   0  0  0  0  0  0  0  0  0  0  0  0
    6.5568   -3.5864   -0.7879 H   0  0  0  0  0  0  0  0  0  0  0  0
    4.8857   -1.7364   -1.3148 H   0  0  0  0  0  0  0  0  0  0  0  0
    3.8335   -3.5798   -0.3564 H   0  0  0  0  0  0  0  0  0  0  0  0
    4.7674   -3.4981    1.1757 H   0  0  0  0  0  0  0  0  0  0  0  0
    2.5925   -1.5102    0.3115 H   0  0  0  0  0  0  0  0  0  0  0  0
    2.3881   -2.8482    1.4959 H   0  0  0  0  0  0  0  0  0  0  0  0
    2.9991    0.1241    3.6513 H   0  0  0  0  0  0  0  0  0  0  0  0
    1.7073   -0.9000    2.9986 H   0  0  0  0  0  0  0  0  0  0  0  0
    0.4539   -0.1789    1.0773 H   0  0  0  0  0  0  0  0  0  0  0  0
    2.8753    1.7658   -0.8521 H   0  0  0  0  0  0  0  0  0  0  0  0
    2.3243    3.2081   -2.7732 H   0  0  0  0  0  0  0  0  0  0  0  0
   -0.0512    3.7487   -3.3119 H   0  0  0  0  0  0  0  0  0  0  0  0
   -4.8805    1.8547   -3.2062 H   0  0  0  0  0  0  0  0  0  0  0  0
   -4.2589   -0.3691   -0.3883 H   0  0  0  0  0  0  0  0  0  0  0  0
   -6.6520    0.8697   -1.9069 H   0  0  0  0  0  0  0  0  0  0  0  0
   -5.5504   -0.4290   -2.5040 H   0  0  0  0  0  0  0  0  0  0  0  0
   -6.2840   -1.9536   -0.7060 H   0  0  0  0  0  0  0  0  0  0  0  0
   -7.7067   -1.3411   -1.6192 H   0  0  0  0  0  0  0  0  0  0  0  0
   -8.2021    0.3219    0.1442 H   0  0  0  0  0  0  0  0  0  0  0  0
   -8.0865   -1.3208    0.8670 H   0  0  0  0  0  0  0  0  0  0  0  0
   -6.8900    0.4167    2.2381 H   0  0  0  0  0  0  0  0  0  0  0  0
   -5.7860   -0.8791    1.6596 H   0  0  0  0  0  0  0  0  0  0  0  0
   -6.1367    1.9464    0.4501 H   0  0  0  0  0  0  0  0  0  0  0  0
   -4.7251    1.3299    1.3784 H   0  0  0  0  0  0  0  0  0  0  0  0
    5.0426    0.3534    2.4045 H   0  0  0  0  0  0  0  0  0  0  0  0
    5.7358   -1.2813    2.4193 H   0  0  0  0  0  0  0  0  0  0  0  0
    4.5506    0.1428   -0.0345 H   0  0  0  0  0  0  0  0  0  0  0  0
    6.2859   -0.0479    0.3183 H   0  0  0  0  0  0  0  0  0  0  0  0
  1  2  1  0
  2  3  1  0
  3  4  1  0
  4  5  1  0
  5  6  1  0
  6  7  1  0
  7  8  1  0
  8  9  2  0
  8 10  1  0
 10 11  1  0
 11 12  2  0
 12 13  1  0
 13 14  2  0
 14 15  1  0
 15 16  2  0
 16 17  1  0
 17 18  2  0
 17 19  1  0
 19 20  2  0
 20 21  1  0
 21 22  1  0
 22 23  2  0
 20 24  1  0
 24 25  1  0
 25 26  1  0
 26 27  1  0
 27 28  1  0
 28 29  1  0
  6 30  1  0
 30 31  1  0
 31  3  1  0
 16 11  1  0
 23 19  1  0
 29 24  1  0
 23 15  1  0
  1 32  1  0
  1 33  1  0
  2 34  1  0
  2 35  1  0
  3 36  1  0
  4 37  1  0
  4 38  1  0
  5 39  1  0
  5 40  1  0
  7 41  1  0
  7 42  1  0
 10 43  1  0
 12 44  1  0
 13 45  1  0
 14 46  1  0
 21 47  1  0
 24 48  1  0
 25 49  1  0
 25 50  1  0
 26 51  1  0
 26 52  1  0
 27 53  1  0
 27 54  1  0
 28 55  1  0
 28 56  1  0
 29 57  1  0
 29 58  1  0
 30 59  1  0
 30 60  1  0
 31 61  1  0
 31 62  1  0
M  END
$$$$
