
     RDKit          3D

154159  0  0  0  0  0  0  0  0999 V2000
   12.9561    0.7579    1.2552 C   0  0  0  0  0  0  0  0  0  0  0  0
   12.0383    1.2998    2.1998 O   0  0  0  0  0  0  0  0  0  0  0  0
   10.6457    1.3419    2.0233 C   0  0  0  0  0  0  0  0  0  0  0  0
   10.0390    0.9132    0.8314 C   0  0  0  0  0  0  0  0  0  0  0  0
    8.6462    0.9203    0.6979 C   0  0  0  0  0  0  0  0  0  0  0  0
    7.9985    0.3507   -0.5432 C   0  0  0  0  0  0  0  0  0  0  0  0
    7.5168   -1.1310   -0.3529 C   0  0  2  0  0  0  0  0  0  0  0  0
    8.6890   -1.9790    0.1258 C   0  0  0  0  0  0  0  0  0  0  0  0
    9.0157   -2.0242    1.4921 C   0  0  0  0  0  0  0  0  0  0  0  0
   10.1849   -2.6683    1.9328 C   0  0  0  0  0  0  0  0  0  0  0  0
   10.5633   -2.6818    3.2848 O   0  0  0  0  0  0  0  0  0  0  0  0
    9.8444   -2.0358    4.3308 C   0  0  0  0  0  0  0  0  0  0  0  0
   11.0116   -3.3120    1.0030 C   0  0  0  0  0  0  0  0  0  0  0  0
   12.1758   -3.9421    1.4707 O   0  0  0  0  0  0  0  0  0  0  0  0
   13.1160   -4.6184    0.6425 C   0  0  0  0  0  0  0  0  0  0  0  0
   10.6539   -3.3175   -0.3577 C   0  0  0  0  0  0  0  0  0  0  0  0
    9.4995   -2.6553   -0.7999 C   0  0  0  0  0  0  0  0  0  0  0  0
    9.0691   -2.8291   -2.2310 C   0  0  0  0  0  0  0  0  0  0  0  0
    7.8769   -1.9468   -2.6511 C   0  0  0  0  0  0  0  0  0  0  0  0
    6.8599   -1.7363   -1.5743 N   0  0  0  0  0  4  0  0  0  0  0  0
    6.2441   -3.0379   -1.1807 C   0  0  0  0  0  0  0  0  0  0  0  0
    5.7791   -0.8163   -2.0776 C   0  0  0  0  0  0  0  0  0  0  0  0
    4.8224   -1.3864   -3.1675 C   0  0  0  0  0  0  0  0  0  0  0  0
    3.4586   -1.7978   -2.6062 C   0  0  0  0  0  0  0  0  0  0  0  0
    2.6214   -2.2306   -3.6729 O   0  0  0  0  0  0  0  0  0  0  0  0
    1.2955   -2.6257   -3.4756 C   0  0  0  0  0  0  0  0  0  0  0  0
    0.8051   -2.6733   -2.3144 O   0  0  0  0  0  0  0  0  0  0  0  0
    0.4470   -2.9819   -4.6582 C   0  0  0  0  0  0  0  0  0  0  0  0
    0.3112   -1.8103   -5.6388 C   0  0  0  0  0  0  0  0  0  0  0  0
   -0.4375   -0.6565   -5.0276 C   0  0  0  0  0  0  0  0  0  0  0  0
    0.1952    0.3028   -4.3346 C   0  0  0  0  0  0  0  0  0  0  0  0
   -0.5565    1.4268   -3.6741 C   0  0  0  0  0  0  0  0  0  0  0  0
   -1.0720    1.0285   -2.2857 C   0  0  0  0  0  0  0  0  0  0  0  0
   -2.1613    0.0045   -2.3691 C   0  0  0  0  0  0  0  0  0  0  0  0
   -1.9374   -1.1803   -1.9992 O   0  0  0  0  0  0  0  0  0  0  0  0
   -3.4070    0.3686   -2.8917 O   0  0  0  0  0  0  0  0  0  0  0  0
   -4.5103   -0.5304   -2.9946 C   0  0  0  0  0  0  0  0  0  0  0  0
   -5.1562   -0.7740   -1.6221 C   0  0  0  0  0  0  0  0  0  0  0  0
   -5.7495    0.5229   -0.9952 C   0  0  0  0  0  0  0  0  0  0  0  0
   -7.2510    0.6275   -0.9797 N   0  0  0  0  0  4  0  0  0  0  0  0
   -7.8210   -0.4838   -0.1597 C   0  0  0  0  0  0  0  0  0  0  0  0
   -7.7538    0.5203   -2.3831 C   0  0  0  0  0  0  0  0  0  0  0  0
   -9.2843    0.5336   -2.4681 C   0  0  0  0  0  0  0  0  0  0  0  0
   -9.8900    1.6301   -1.6469 C   0  0  0  0  0  0  0  0  0  0  0  0
  -11.2413    1.9397   -1.8577 C   0  0  0  0  0  0  0  0  0  0  0  0
  -11.8464    3.0130   -1.1874 C   0  0  0  0  0  0  0  0  0  0  0  0
  -13.2013    3.3367   -1.3642 O   0  0  0  0  0  0  0  0  0  0  0  0
  -14.0998    2.6205   -2.2052 C   0  0  0  0  0  0  0  0  0  0  0  0
  -11.0807    3.8031   -0.3261 C   0  0  0  0  0  0  0  0  0  0  0  0
  -11.7034    4.8924    0.3050 O   0  0  0  0  0  0  0  0  0  0  0  0
  -11.0732    5.7471    1.2538 C   0  0  0  0  0  0  0  0  0  0  0  0
   -9.7247    3.4918   -0.1165 C   0  0  0  0  0  0  0  0  0  0  0  0
   -9.1362    2.3404   -0.6872 C   0  0  0  0  0  0  0  0  0  0  0  0
   -7.6505    1.9955   -0.4479 C   0  0  1  0  0  0  0  0  0  0  0  0
   -7.1308    2.3280    1.0060 C   0  0  0  0  0  0  0  0  0  0  0  0
   -7.6179    1.4477    2.1393 C   0  0  0  0  0  0  0  0  0  0  0  0
   -6.7063    0.6513    2.8471 C   0  0  0  0  0  0  0  0  0  0  0  0
   -7.1291   -0.1763    3.9055 C   0  0  0  0  0  0  0  0  0  0  0  0
   -6.2142   -0.9933    4.5886 O   0  0  0  0  0  0  0  0  0  0  0  0
   -4.8253   -1.0939    4.2898 C   0  0  0  0  0  0  0  0  0  0  0  0
   -8.4981   -0.1788    4.2772 C   0  0  0  0  0  0  0  0  0  0  0  0
   -9.0253   -0.9720    5.3147 O   0  0  0  0  0  0  0  0  0  0  0  0
   -8.3053   -1.8861    6.1343 C   0  0  0  0  0  0  0  0  0  0  0  0
   -9.4047    0.6469    3.5936 C   0  0  0  0  0  0  0  0  0  0  0  0
  -10.7520    0.6287    3.9917 O   0  0  0  0  0  0  0  0  0  0  0  0
  -11.7874    1.3921    3.3790 C   0  0  0  0  0  0  0  0  0  0  0  0
   -8.9578    1.4626    2.5416 C   0  0  0  0  0  0  0  0  0  0  0  0
    7.8556    1.3788    1.7572 C   0  0  0  0  0  0  0  0  0  0  0  0
    8.4419    1.8348    2.9540 C   0  0  0  0  0  0  0  0  0  0  0  0
    7.6456    2.2994    4.0126 O   0  0  0  0  0  0  0  0  0  0  0  0
    6.2223    2.3500    4.0040 C   0  0  0  0  0  0  0  0  0  0  0  0
    9.8553    1.8129    3.0849 C   0  0  0  0  0  0  0  0  0  0  0  0
   10.5392    2.2295    4.2432 O   0  0  0  0  0  0  0  0  0  0  0  0
    9.9530    2.6891    5.4558 C   0  0  0  0  0  0  0  0  0  0  0  0
   13.9834    0.8264    1.6678 H   0  0  0  0  0  0  0  0  0  0  0  0
   12.7202   -0.3108    1.0639 H   0  0  0  0  0  0  0  0  0  0  0  0
   12.9151    1.3354    0.3077 H   0  0  0  0  0  0  0  0  0  0  0  0
   10.6410    0.5360    0.0156 H   0  0  0  0  0  0  0  0  0  0  0  0
    7.1426    1.0145   -0.7802 H   0  0  0  0  0  0  0  0  0  0  0  0
    8.7119    0.4290   -1.3884 H   0  0  0  0  0  0  0  0  0  0  0  0
    6.7633   -1.1031    0.4699 H   0  0  0  0  0  0  0  0  0  0  0  0
    8.3752   -1.5178    2.2011 H   0  0  0  0  0  0  0  0  0  0  0  0
   10.3751   -2.2003    5.2907 H   0  0  0  0  0  0  0  0  0  0  0  0
    9.7893   -0.9439    4.1389 H   0  0  0  0  0  0  0  0  0  0  0  0
    8.8223   -2.4620    4.4119 H   0  0  0  0  0  0  0  0  0  0  0  0
   13.9418   -5.0057    1.2736 H   0  0  0  0  0  0  0  0  0  0  0  0
   12.6280   -5.4750    0.1314 H   0  0  0  0  0  0  0  0  0  0  0  0
   13.5398   -3.9161   -0.1061 H   0  0  0  0  0  0  0  0  0  0  0  0
   11.2602   -3.8480   -1.0801 H   0  0  0  0  0  0  0  0  0  0  0  0
    8.7924   -3.8959   -2.3788 H   0  0  0  0  0  0  0  0  0  0  0  0
    9.9280   -2.6157   -2.9040 H   0  0  0  0  0  0  0  0  0  0  0  0
    8.2727   -0.9758   -3.0169 H   0  0  0  0  0  0  0  0  0  0  0  0
    7.4228   -2.4250   -3.5437 H   0  0  0  0  0  0  0  0  0  0  0  0
    5.4118   -2.8800   -0.4601 H   0  0  0  0  0  0  0  0  0  0  0  0
    5.8605   -3.6004   -2.0570 H   0  0  0  0  0  0  0  0  0  0  0  0
    6.9669   -3.7176   -0.6841 H   0  0  0  0  0  0  0  0  0  0  0  0
    6.2414    0.0841   -2.5393 H   0  0  0  0  0  0  0  0  0  0  0  0
    5.1714   -0.4359   -1.2244 H   0  0  0  0  0  0  0  0  0  0  0  0
    5.2592   -2.2329   -3.7306 H   0  0  0  0  0  0  0  0  0  0  0  0
    4.6365   -0.5878   -3.9198 H   0  0  0  0  0  0  0  0  0  0  0  0
    2.9855   -0.9267   -2.1013 H   0  0  0  0  0  0  0  0  0  0  0  0
    3.5695   -2.6230   -1.8740 H   0  0  0  0  0  0  0  0  0  0  0  0
   -0.5628   -3.3067   -4.3224 H   0  0  0  0  0  0  0  0  0  0  0  0
    0.9198   -3.8386   -5.1837 H   0  0  0  0  0  0  0  0  0  0  0  0
   -0.2569   -2.1616   -6.5267 H   0  0  0  0  0  0  0  0  0  0  0  0
    1.3122   -1.4838   -5.9983 H   0  0  0  0  0  0  0  0  0  0  0  0
   -1.5183   -0.6254   -5.1364 H   0  0  0  0  0  0  0  0  0  0  0  0
    1.2770    0.2768   -4.2355 H   0  0  0  0  0  0  0  0  0  0  0  0
   -1.3934    1.7723   -4.3205 H   0  0  0  0  0  0  0  0  0  0  0  0
    0.1402    2.2838   -3.5525 H   0  0  0  0  0  0  0  0  0  0  0  0
   -0.2310    0.6466   -1.6654 H   0  0  0  0  0  0  0  0  0  0  0  0
   -1.4786    1.9307   -1.7809 H   0  0  0  0  0  0  0  0  0  0  0  0
   -5.2544   -0.0946   -3.6917 H   0  0  0  0  0  0  0  0  0  0  0  0
   -4.1725   -1.4958   -3.4309 H   0  0  0  0  0  0  0  0  0  0  0  0
   -4.3757   -1.1774   -0.9411 H   0  0  0  0  0  0  0  0  0  0  0  0
   -5.9054   -1.5841   -1.7130 H   0  0  0  0  0  0  0  0  0  0  0  0
   -5.3071    1.4151   -1.4938 H   0  0  0  0  0  0  0  0  0  0  0  0
   -5.3588    0.5458    0.0430 H   0  0  0  0  0  0  0  0  0  0  0  0
   -7.1635   -0.7609    0.6878 H   0  0  0  0  0  0  0  0  0  0  0  0
   -7.9465   -1.4157   -0.7527 H   0  0  0  0  0  0  0  0  0  0  0  0
   -8.8244   -0.2286    0.2425 H   0  0  0  0  0  0  0  0  0  0  0  0
   -7.3522    1.3544   -3.0040 H   0  0  0  0  0  0  0  0  0  0  0  0
   -7.4302   -0.4225   -2.8700 H   0  0  0  0  0  0  0  0  0  0  0  0
   -9.6996   -0.4411   -2.1334 H   0  0  0  0  0  0  0  0  0  0  0  0
   -9.5730    0.6655   -3.5341 H   0  0  0  0  0  0  0  0  0  0  0  0
  -11.8100    1.3477   -2.5628 H   0  0  0  0  0  0  0  0  0  0  0  0
  -14.1769    1.5645   -1.8702 H   0  0  0  0  0  0  0  0  0  0  0  0
  -13.7529    2.6639   -3.2592 H   0  0  0  0  0  0  0  0  0  0  0  0
  -15.1041    3.0871   -2.1430 H   0  0  0  0  0  0  0  0  0  0  0  0
  -10.7152    5.1547    2.1226 H   0  0  0  0  0  0  0  0  0  0  0  0
  -11.8097    6.4946    1.6130 H   0  0  0  0  0  0  0  0  0  0  0  0
  -10.2251    6.2848    0.7799 H   0  0  0  0  0  0  0  0  0  0  0  0
   -9.1435    4.1505    0.5024 H   0  0  0  0  0  0  0  0  0  0  0  0
   -7.1302    2.7556   -1.0768 H   0  0  0  0  0  0  0  0  0  0  0  0
   -6.0227    2.3547    0.9988 H   0  0  0  0  0  0  0  0  0  0  0  0
   -7.3545    3.3752    1.2781 H   0  0  0  0  0  0  0  0  0  0  0  0
   -5.6659    0.6663    2.5536 H   0  0  0  0  0  0  0  0  0  0  0  0
   -4.3324   -0.1083    4.4263 H   0  0  0  0  0  0  0  0  0  0  0  0
   -4.3582   -1.8222    4.9838 H   0  0  0  0  0  0  0  0  0  0  0  0
   -4.6834   -1.4546    3.2489 H   0  0  0  0  0  0  0  0  0  0  0  0
   -7.5283   -1.3496    6.7183 H   0  0  0  0  0  0  0  0  0  0  0  0
   -9.0102   -2.3577    6.8491 H   0  0  0  0  0  0  0  0  0  0  0  0
   -7.8547   -2.6881    5.5126 H   0  0  0  0  0  0  0  0  0  0  0  0
  -11.5744    2.4774    3.4815 H   0  0  0  0  0  0  0  0  0  0  0  0
  -12.7491    1.1703    3.8848 H   0  0  0  0  0  0  0  0  0  0  0  0
  -11.8791    1.1206    2.3057 H   0  0  0  0  0  0  0  0  0  0  0  0
   -9.6544    2.1109    2.0430 H   0  0  0  0  0  0  0  0  0  0  0  0
    6.7802    1.3629    1.6432 H   0  0  0  0  0  0  0  0  0  0  0  0
    5.8045    1.3290    3.8769 H   0  0  0  0  0  0  0  0  0  0  0  0
    5.8695    2.7589    4.9728 H   0  0  0  0  0  0  0  0  0  0  0  0
    5.8683    3.0152    3.1884 H   0  0  0  0  0  0  0  0  0  0  0  0
    9.3053    1.9002    5.8929 H   0  0  0  0  0  0  0  0  0  0  0  0
   10.7612    2.9144    6.1812 H   0  0  0  0  0  0  0  0  0  0  0  0
    9.3797    3.6228    5.2766 H   0  0  0  0  0  0  0  0  0  0  0  0
  1  2  1  0
  2  3  1  0
  3  4  2  0
  4  5  1  0
  5  6  1  0
  6  7  1  0
  7  8  1  0
  8  9  2  0
  9 10  1  0
 10 11  1  0
 11 12  1  0
 10 13  2  0
 13 14  1  0
 14 15  1  0
 13 16  1  0
 16 17  2  0
 17 18  1  0
 18 19  1  0
 19 20  1  0
 20 21  1  0
 20 22  1  0
 22 23  1  0
 23 24  1  0
 24 25  1  0
 25 26  1  0
 26 27  2  0
 26 28  1  0
 28 29  1  0
 29 30  1  0
 30 31  2  0
 31 32  1  0
 32 33  1  0
 33 34  1  0
 34 35  2  0
 34 36  1  0
 36 37  1  0
 37 38  1  0
 38 39  1  0
 39 40  1  0
 40 41  1  0
 40 42  1  0
 42 43  1  0
 43 44  1  0
 44 45  2  0
 45 46  1  0
 46 47  1  0
 47 48  1  0
 46 49  2  0
 49 50  1  0
 50 51  1  0
 49 52  1  0
 52 53  2  0
 53 54  1  0
 54 55  1  0
 55 56  1  0
 56 57  2  0
 57 58  1  0
 58 59  1  0
 59 60  1  0
 58 61  2  0
 61 62  1  0
 62 63  1  0
 61 64  1  0
 64 65  1  0
 65 66  1  0
 64 67  2  0
  5 68  2  0
 68 69  1  0
 69 70  1  0
 70 71  1  0
 69 72  2  0
 72 73  1  0
 73 74  1  0
 72  3  1  0
 20  7  1  0
 54 40  1  0
 67 56  1  0
 17  8  1  0
 53 44  1  0
  1 75  1  0
  1 76  1  0
  1 77  1  0
  4 78  1  0
  6 79  1  0
  6 80  1  0
  7 81  1  1
  9 82  1  0
 12 83  1  0
 12 84  1  0
 12 85  1  0
 15 86  1  0
 15 87  1  0
 15 88  1  0
 16 89  1  0
 18 90  1  0
 18 91  1  0
 19 92  1  0
 19 93  1  0
 21 94  1  0
 21 95  1  0
 21 96  1  0
 22 97  1  0
 22 98  1  0
 23 99  1  0
 23100  1  0
 24101  1  0
 24102  1  0
 28103  1  0
 28104  1  0
 29105  1  0
 29106  1  0
 30107  1  0
 31108  1  0
 32109  1  0
 32110  1  0
 33111  1  0
 33112  1  0
 37113  1  0
 37114  1  0
 38115  1  0
 38116  1  0
 39117  1  0
 39118  1  0
 41119  1  0
 41120  1  0
 41121  1  0
 42122  1  0
 42123  1  0
 43124  1  0
 43125  1  0
 45126  1  0
 48127  1  0
 48128  1  0
 48129  1  0
 51130  1  0
 51131  1  0
 51132  1  0
 52133  1  0
 54134  1  6
 55135  1  0
 55136  1  0
 57137  1  0
 60138  1  0
 60139  1  0
 60140  1  0
 63141  1  0
 63142  1  0
 63143  1  0
 66144  1  0
 66145  1  0
 66146  1  0
 67147  1  0
 68148  1  0
 71149  1  0
 71150  1  0
 71151  1  0
 74152  1  0
 74153  1  0
 74154  1  0
M  CHG  2  20   1  40   1
M  END
$$$$
