
     RDKit          3D

 57 59  0  0  0  0  0  0  0  0999 V2000
   -2.1326   -0.7404   -2.2722 C   0  0  2  0  0  0  0  0  0  0  0  0
   -1.7824    0.6600   -2.5244 N   0  0  0  0  0  0  0  0  0  0  0  0
   -3.2212   -0.8574   -1.1707 C   0  0  0  0  0  0  0  0  0  0  0  0
   -2.7705   -0.3453    0.2306 C   0  0  0  0  0  0  0  0  0  0  0  0
   -3.1897   -1.3330    1.3398 C   0  0  0  0  0  0  0  0  0  0  0  0
   -2.7424   -0.8367    2.7211 C   0  0  0  0  0  0  0  0  0  0  0  0
   -3.2985    0.5619    3.0115 C   0  0  0  0  0  0  0  0  0  0  0  0
   -2.8998    1.5522    1.9115 C   0  0  0  0  0  0  0  0  0  0  0  0
   -3.3520    1.0538    0.5332 C   0  0  0  0  0  0  0  0  0  0  0  0
   -0.8993   -1.5642   -1.9501 C   0  0  0  0  0  0  0  0  0  0  0  0
   -1.0150   -2.5949   -1.2313 O   0  0  0  0  0  0  0  0  0  0  0  0
    0.4000   -1.2189   -2.4641 N   0  0  0  0  0  0  0  0  0  0  0  0
    0.6353   -0.6790   -3.7940 C   0  0  0  0  0  0  0  0  0  0  0  0
    2.1232   -0.8768   -4.0563 C   0  0  0  0  0  0  0  0  0  0  0  0
    2.7605   -1.0790   -2.6843 C   0  0  0  0  0  0  0  0  0  0  0  0
    1.6338   -1.5993   -1.7917 C   0  0  1  0  0  0  0  0  0  0  0  0
    1.6911   -1.0104   -0.4065 C   0  0  0  0  0  0  0  0  0  0  0  0
    2.0520   -1.7365    0.5589 O   0  0  0  0  0  0  0  0  0  0  0  0
    1.3375    0.3635   -0.1861 N   0  0  0  0  0  0  0  0  0  0  0  0
    1.2151    0.9373    1.1511 C   0  0  0  0  0  0  0  0  0  0  0  0
    2.5757    1.1403    1.7584 C   0  0  0  0  0  0  0  0  0  0  0  0
    3.0013    0.3518    2.8405 C   0  0  0  0  0  0  0  0  0  0  0  0
    4.2768    0.5348    3.3867 C   0  0  0  0  0  0  0  0  0  0  0  0
    4.8027   -0.4534    4.7372 Cl  0  0  0  0  0  0  0  0  0  0  0  0
    5.1333    1.5040    2.8541 C   0  0  0  0  0  0  0  0  0  0  0  0
    4.7166    2.2891    1.7756 C   0  0  0  0  0  0  0  0  0  0  0  0
    3.4433    2.1084    1.2275 C   0  0  0  0  0  0  0  0  0  0  0  0
   -2.5602   -1.1571   -3.2101 H   0  0  0  0  0  0  0  0  0  0  0  0
   -1.3154    1.0703   -1.6846 H   0  0  0  0  0  0  0  0  0  0  0  0
   -2.6539    1.2063   -2.7139 H   0  0  0  0  0  0  0  0  0  0  0  0
   -3.5276   -1.9257   -1.1138 H   0  0  0  0  0  0  0  0  0  0  0  0
   -4.1338   -0.3178   -1.5071 H   0  0  0  0  0  0  0  0  0  0  0  0
   -1.6609   -0.2706    0.2635 H   0  0  0  0  0  0  0  0  0  0  0  0
   -4.2945   -1.4658    1.3334 H   0  0  0  0  0  0  0  0  0  0  0  0
   -2.7227   -2.3245    1.1528 H   0  0  0  0  0  0  0  0  0  0  0  0
   -1.6313   -0.8145    2.7687 H   0  0  0  0  0  0  0  0  0  0  0  0
   -3.1033   -1.5432    3.4991 H   0  0  0  0  0  0  0  0  0  0  0  0
   -4.4072    0.5144    3.0874 H   0  0  0  0  0  0  0  0  0  0  0  0
   -2.9033    0.9185    3.9870 H   0  0  0  0  0  0  0  0  0  0  0  0
   -1.7968    1.6925    1.9159 H   0  0  0  0  0  0  0  0  0  0  0  0
   -3.3703    2.5375    2.1179 H   0  0  0  0  0  0  0  0  0  0  0  0
   -4.4638    1.0177    0.5053 H   0  0  0  0  0  0  0  0  0  0  0  0
   -3.0194    1.7837   -0.2336 H   0  0  0  0  0  0  0  0  0  0  0  0
    0.3943    0.4042   -3.8142 H   0  0  0  0  0  0  0  0  0  0  0  0
    0.0276   -1.2215   -4.5505 H   0  0  0  0  0  0  0  0  0  0  0  0
    2.5636   -0.0031   -4.5842 H   0  0  0  0  0  0  0  0  0  0  0  0
    2.2740   -1.7907   -4.6723 H   0  0  0  0  0  0  0  0  0  0  0  0
    3.6028   -1.8028   -2.7346 H   0  0  0  0  0  0  0  0  0  0  0  0
    3.1470   -0.1008   -2.3195 H   0  0  0  0  0  0  0  0  0  0  0  0
    1.6883   -2.7100   -1.7371 H   0  0  0  0  0  0  0  0  0  0  0  0
    1.1097    0.9686   -1.0068 H   0  0  0  0  0  0  0  0  0  0  0  0
    0.7024    1.9212    1.0827 H   0  0  0  0  0  0  0  0  0  0  0  0
    0.5780    0.2809    1.7832 H   0  0  0  0  0  0  0  0  0  0  0  0
    2.3464   -0.4042    3.2563 H   0  0  0  0  0  0  0  0  0  0  0  0
    6.1209    1.6483    3.2732 H   0  0  0  0  0  0  0  0  0  0  0  0
    5.3814    3.0369    1.3630 H   0  0  0  0  0  0  0  0  0  0  0  0
    3.1334    2.7195    0.3887 H   0  0  0  0  0  0  0  0  0  0  0  0
  1  2  1  0
  1  3  1  0
  3  4  1  0
  4  5  1  0
  5  6  1  0
  6  7  1  0
  7  8  1  0
  8  9  1  0
  1 10  1  0
 10 11  2  0
 10 12  1  0
 12 13  1  0
 13 14  1  0
 14 15  1  0
 15 16  1  0
 16 17  1  0
 17 18  2  0
 17 19  1  0
 19 20  1  0
 20 21  1  0
 21 22  2  0
 22 23  1  0
 23 24  1  0
 23 25  2  0
 25 26  1  0
 26 27  2  0
  9  4  1  0
 16 12  1  0
 27 21  1  0
  1 28  1  6
  2 29  1  0
  2 30  1  0
  3 31  1  0
  3 32  1  0
  4 33  1  0
  5 34  1  0
  5 35  1  0
  6 36  1  0
  6 37  1  0
  7 38  1  0
  7 39  1  0
  8 40  1  0
  8 41  1  0
  9 42  1  0
  9 43  1  0
 13 44  1  0
 13 45  1  0
 14 46  1  0
 14 47  1  0
 15 48  1  0
 15 49  1  0
 16 50  1  1
 19 51  1  0
 20 52  1  0
 20 53  1  0
 22 54  1  0
 25 55  1  0
 26 56  1  0
 27 57  1  0
M  END
$$$$
