
     RDKit          3D

 38 40  0  0  0  0  0  0  0  0999 V2000
    3.6352   -3.3333    1.7123 O   0  0  0  0  0  0  0  0  0  0  0  0
    4.1717   -2.9207    0.4971 C   0  0  0  0  0  0  0  0  0  0  0  0
    5.3611   -2.5088    0.4398 O   0  0  0  0  0  0  0  0  0  0  0  0
    3.3247   -2.9457   -0.7345 C   0  0  0  0  0  0  0  0  0  0  0  0
    2.2837   -1.9774   -0.6365 O   0  0  0  0  0  0  0  0  0  0  0  0
    2.4985   -0.5988   -0.7370 C   0  0  0  0  0  0  0  0  0  0  0  0
    3.6547   -0.1655   -0.9998 O   0  0  0  0  0  0  0  0  0  0  0  0
    1.3771    0.3594   -0.5578 C   0  0  0  0  0  0  0  0  0  0  0  0
    0.1551    0.0061    0.0493 C   0  0  0  0  0  0  0  0  0  0  0  0
   -0.8735    0.9386    0.2386 C   0  0  0  0  0  0  0  0  0  0  0  0
   -2.0216    0.3300    0.9617 C   0  0  0  0  0  0  0  0  0  0  0  0
   -3.0726    0.9435    1.2827 O   0  0  0  0  0  0  0  0  0  0  0  0
   -1.8276   -1.0442    1.2938 N   0  0  0  0  0  0  0  0  0  0  0  0
   -2.7678   -1.8990    2.0107 C   0  0  0  0  0  0  0  0  0  0  0  0
   -3.9381   -2.2167    1.1379 C   0  0  0  0  0  0  0  0  0  0  0  0
   -5.1289   -1.5136    1.2897 O   0  0  0  0  0  0  0  0  0  0  0  0
   -3.8352   -3.0964    0.2417 O   0  0  0  0  0  0  0  0  0  0  0  0
   -0.2893   -1.5474    0.7250 S   0  0  0  0  0  6  0  0  0  0  0  0
   -0.4272   -2.6197   -0.3188 O   0  0  0  0  0  0  0  0  0  0  0  0
    0.6053   -1.9610    1.8594 O   0  0  0  0  0  0  0  0  0  0  0  0
   -0.7209    2.2716   -0.2126 C   0  0  0  0  0  0  0  0  0  0  0  0
   -1.7257    3.2533   -0.0748 C   0  0  0  0  0  0  0  0  0  0  0  0
   -1.5158    4.5548   -0.5373 C   0  0  0  0  0  0  0  0  0  0  0  0
   -0.3095    4.9018   -1.1427 C   0  0  0  0  0  0  0  0  0  0  0  0
    0.6972    3.9490   -1.2926 C   0  0  0  0  0  0  0  0  0  0  0  0
    0.5053    2.6349   -0.8351 C   0  0  0  0  0  0  0  0  0  0  0  0
    1.5322    1.6877   -0.9938 C   0  0  0  0  0  0  0  0  0  0  0  0
    4.1909   -3.3136    2.5590 H   0  0  0  0  0  0  0  0  0  0  0  0
    3.9378   -2.7614   -1.6439 H   0  0  0  0  0  0  0  0  0  0  0  0
    2.8664   -3.9520   -0.8291 H   0  0  0  0  0  0  0  0  0  0  0  0
   -3.1071   -1.3870    2.9363 H   0  0  0  0  0  0  0  0  0  0  0  0
   -2.2667   -2.8454    2.3073 H   0  0  0  0  0  0  0  0  0  0  0  0
   -5.9257   -1.7071    0.6950 H   0  0  0  0  0  0  0  0  0  0  0  0
   -2.6799    3.0433    0.3765 H   0  0  0  0  0  0  0  0  0  0  0  0
   -2.2946    5.2985   -0.4266 H   0  0  0  0  0  0  0  0  0  0  0  0
   -0.1547    5.9124   -1.4983 H   0  0  0  0  0  0  0  0  0  0  0  0
    1.6272    4.2394   -1.7671 H   0  0  0  0  0  0  0  0  0  0  0  0
    2.4581    1.9903   -1.4701 H   0  0  0  0  0  0  0  0  0  0  0  0
  1  2  1  0
  2  3  2  0
  2  4  1  0
  4  5  1  0
  5  6  1  0
  6  7  2  0
  6  8  1  0
  8  9  2  0
  9 10  1  0
 10 11  1  0
 11 12  2  0
 11 13  1  0
 13 14  1  0
 14 15  1  0
 15 16  1  0
 15 17  2  0
 13 18  1  0
 18 19  2  0
 18 20  2  0
 10 21  2  0
 21 22  1  0
 22 23  2  0
 23 24  1  0
 24 25  2  0
 25 26  1  0
 26 27  2  0
 27  8  1  0
 18  9  1  0
 26 21  1  0
  1 28  1  0
  4 29  1  0
  4 30  1  0
 14 31  1  0
 14 32  1  0
 16 33  1  0
 22 34  1  0
 23 35  1  0
 24 36  1  0
 25 37  1  0
 27 38  1  0
M  END
$$$$
