
     RDKit          3D

 54 57  0  0  0  0  0  0  0  0999 V2000
   -0.3787   -1.7421    0.0190 C   0  0  2  0  0  0  0  0  0  0  0  0
   -1.3482   -1.8166    1.2171 C   0  0  0  0  0  0  0  0  0  0  0  0
   -2.6473   -2.4879    0.8478 C   0  0  0  0  0  0  0  0  0  0  0  0
   -2.7105   -3.8850    0.7154 C   0  0  0  0  0  0  0  0  0  0  0  0
   -3.9063   -4.5033    0.3371 C   0  0  0  0  0  0  0  0  0  0  0  0
   -5.0446   -3.7321    0.0837 C   0  0  0  0  0  0  0  0  0  0  0  0
   -6.2024   -4.3331   -0.2854 F   0  0  0  0  0  0  0  0  0  0  0  0
   -4.9880   -2.3409    0.2091 C   0  0  0  0  0  0  0  0  0  0  0  0
   -3.7947   -1.7197    0.5888 C   0  0  0  0  0  0  0  0  0  0  0  0
    0.9047   -1.1594    0.4222 N   0  0  0  0  0  0  0  0  0  0  0  0
    2.0473   -1.1609   -0.4477 C   0  0  0  0  0  0  0  0  0  0  0  0
    2.0468   -1.8801   -1.4837 O   0  0  0  0  0  0  0  0  0  0  0  0
    3.2269   -0.3269   -0.1497 C   0  0  0  0  0  0  0  0  0  0  0  0
    4.4414   -0.3974   -0.8316 C   0  0  0  0  0  0  0  0  0  0  0  0
    5.2333    0.5685   -0.2514 C   0  0  0  0  0  0  0  0  0  0  0  0
    4.4920    1.1753    0.7279 C   0  0  0  0  0  0  0  0  0  0  0  0
    3.2624    0.6398    0.8011 N   0  0  0  0  0  0  0  0  0  0  0  0
    5.0096    2.2145    1.4996 C   0  0  0  0  0  0  0  0  0  0  0  0
    6.3310    2.6262    1.2464 C   0  0  0  0  0  0  0  0  0  0  0  0
    7.0963    1.9983    0.2365 C   0  0  0  0  0  0  0  0  0  0  0  0
    8.7413    2.5249   -0.0674 Cl  0  0  0  0  0  0  0  0  0  0  0  0
    6.5433    0.9532   -0.5283 C   0  0  0  0  0  0  0  0  0  0  0  0
   -0.9789   -0.9692   -1.1385 C   0  0  0  0  0  0  0  0  0  0  0  0
   -1.1609   -1.5776   -2.2286 O   0  0  0  0  0  0  0  0  0  0  0  0
   -1.3907    0.4104   -1.0200 N   0  0  0  0  0  0  0  0  0  0  0  0
   -2.4720    0.9048   -1.8868 C   0  0  0  0  0  0  0  0  0  0  0  0
   -3.3655    1.9276   -1.1598 C   0  0  0  0  0  0  0  0  0  0  0  0
   -2.6157    2.8139   -0.1389 C   0  0  0  0  0  0  0  0  0  0  0  0
   -2.8973    2.3666    1.1637 O   0  0  0  0  0  0  0  0  0  0  0  0
   -1.0995    2.8005   -0.3822 C   0  0  0  0  0  0  0  0  0  0  0  0
   -0.5550    1.3711   -0.2797 C   0  0  0  0  0  0  0  0  0  0  0  0
   -0.1865   -2.7883   -0.3112 H   0  0  0  0  0  0  0  0  0  0  0  0
   -1.5451   -0.8017    1.6226 H   0  0  0  0  0  0  0  0  0  0  0  0
   -0.8671   -2.3956    2.0357 H   0  0  0  0  0  0  0  0  0  0  0  0
   -1.8335   -4.4926    0.9014 H   0  0  0  0  0  0  0  0  0  0  0  0
   -3.9486   -5.5803    0.2373 H   0  0  0  0  0  0  0  0  0  0  0  0
   -5.8679   -1.7426    0.0106 H   0  0  0  0  0  0  0  0  0  0  0  0
   -3.7642   -0.6419    0.6801 H   0  0  0  0  0  0  0  0  0  0  0  0
    1.0018   -0.7606    1.3826 H   0  0  0  0  0  0  0  0  0  0  0  0
    4.7064   -1.0615   -1.6443 H   0  0  0  0  0  0  0  0  0  0  0  0
    2.4958    0.9374    1.4441 H   0  0  0  0  0  0  0  0  0  0  0  0
    4.4153    2.6904    2.2689 H   0  0  0  0  0  0  0  0  0  0  0  0
    6.7603    3.4301    1.8304 H   0  0  0  0  0  0  0  0  0  0  0  0
    7.1149    0.4646   -1.3072 H   0  0  0  0  0  0  0  0  0  0  0  0
   -2.0201    1.3792   -2.7851 H   0  0  0  0  0  0  0  0  0  0  0  0
   -3.1143    0.0665   -2.2362 H   0  0  0  0  0  0  0  0  0  0  0  0
   -3.8401    2.5769   -1.9280 H   0  0  0  0  0  0  0  0  0  0  0  0
   -4.1951    1.3905   -0.6504 H   0  0  0  0  0  0  0  0  0  0  0  0
   -2.9830    3.8609   -0.2525 H   0  0  0  0  0  0  0  0  0  0  0  0
   -2.6382    3.0989    1.7822 H   0  0  0  0  0  0  0  0  0  0  0  0
   -0.5882    3.4482    0.3628 H   0  0  0  0  0  0  0  0  0  0  0  0
   -0.8814    3.2126   -1.3920 H   0  0  0  0  0  0  0  0  0  0  0  0
   -0.5223    1.0921    0.7929 H   0  0  0  0  0  0  0  0  0  0  0  0
    0.4811    1.3534   -0.6806 H   0  0  0  0  0  0  0  0  0  0  0  0
  1  2  1  0
  2  3  1  0
  3  4  2  0
  4  5  1  0
  5  6  2  0
  6  7  1  0
  6  8  1  0
  8  9  2  0
  1 10  1  0
 10 11  1  0
 11 12  2  0
 11 13  1  0
 13 14  2  0
 14 15  1  0
 15 16  2  0
 16 17  1  0
 16 18  1  0
 18 19  2  0
 19 20  1  0
 20 21  1  0
 20 22  2  0
  1 23  1  0
 23 24  2  0
 23 25  1  0
 25 26  1  0
 26 27  1  0
 27 28  1  0
 28 29  1  0
 28 30  1  0
 30 31  1  0
  9  3  1  0
 17 13  1  0
 31 25  1  0
 22 15  1  0
  1 32  1  6
  2 33  1  0
  2 34  1  0
  4 35  1  0
  5 36  1  0
  8 37  1  0
  9 38  1  0
 10 39  1  0
 14 40  1  0
 17 41  1  0
 18 42  1  0
 19 43  1  0
 22 44  1  0
 26 45  1  0
 26 46  1  0
 27 47  1  0
 27 48  1  0
 28 49  1  0
 29 50  1  0
 30 51  1  0
 30 52  1  0
 31 53  1  0
 31 54  1  0
M  END
$$$$
