
     RDKit          3D

 37 38  0  0  0  0  0  0  0  0999 V2000
    4.9421    1.8719    1.5431 N   0  0  0  0  0  0  0  0  0  0  0  0
    4.4897    1.1027    0.4273 C   0  0  0  0  0  0  0  0  0  0  0  0
    5.3398    0.5993   -0.3523 O   0  0  0  0  0  0  0  0  0  0  0  0
    3.0428    0.9176    0.1888 C   0  0  0  0  0  0  0  0  0  0  0  0
    2.4159    0.1363   -0.7722 C   0  0  0  0  0  0  0  0  0  0  0  0
    3.0458   -0.7271   -1.7276 N   0  0  0  0  0  0  0  0  0  0  0  0
    1.0815    0.2811   -0.6381 N   0  0  0  0  0  0  0  0  0  0  0  0
    0.9237    1.1222    0.4060 C   0  0  0  0  0  0  0  0  0  0  0  0
    2.0976    1.5341    0.9290 N   0  0  0  0  0  0  0  0  0  0  0  0
    0.0120   -0.4089   -1.3689 C   0  0  2  0  0  0  0  0  0  0  0  0
   -1.1363    0.4095   -1.4353 O   0  0  0  0  0  0  0  0  0  0  0  0
   -2.2730   -0.4138   -1.2638 C   0  0  2  0  0  0  0  0  0  0  0  0
   -3.1213    0.1306   -0.1068 C   0  0  0  0  0  0  0  0  0  0  0  0
   -2.3720    0.1064    1.0861 O   0  0  0  0  0  0  0  0  0  0  0  0
   -3.3169    0.7810    2.3344 P   0  0  0  0  0  5  0  0  0  0  0  0
   -3.7625    2.3667    1.9428 O   0  0  0  0  0  0  0  0  0  0  0  0
   -2.4080    0.7984    3.7609 O   0  0  0  0  0  0  0  0  0  0  0  0
   -4.5595   -0.0526    2.5538 O   0  0  0  0  0  0  0  0  0  0  0  0
   -1.8228   -1.8639   -1.0225 C   0  0  1  0  0  0  0  0  0  0  0  0
   -2.0193   -2.6572   -2.1715 O   0  0  0  0  0  0  0  0  0  0  0  0
   -0.3603   -1.7139   -0.6766 C   0  0  1  0  0  0  0  0  0  0  0  0
    0.4010   -2.7935   -1.1529 O   0  0  0  0  0  0  0  0  0  0  0  0
    4.2675    2.3032    2.2129 H   0  0  0  0  0  0  0  0  0  0  0  0
    5.9645    2.0086    1.7057 H   0  0  0  0  0  0  0  0  0  0  0  0
    2.4833   -1.2694   -2.4174 H   0  0  0  0  0  0  0  0  0  0  0  0
    4.0767   -0.8711   -1.7450 H   0  0  0  0  0  0  0  0  0  0  0  0
   -0.0372    1.4318    0.7949 H   0  0  0  0  0  0  0  0  0  0  0  0
    0.3360   -0.6071   -2.4137 H   0  0  0  0  0  0  0  0  0  0  0  0
   -2.8914   -0.3571   -2.1872 H   0  0  0  0  0  0  0  0  0  0  0  0
   -3.4205    1.1715   -0.3669 H   0  0  0  0  0  0  0  0  0  0  0  0
   -4.0363   -0.4975   -0.0123 H   0  0  0  0  0  0  0  0  0  0  0  0
   -2.9061    2.8326    1.7684 H   0  0  0  0  0  0  0  0  0  0  0  0
   -1.5741    1.2765    3.5218 H   0  0  0  0  0  0  0  0  0  0  0  0
   -2.3681   -2.3401   -0.1773 H   0  0  0  0  0  0  0  0  0  0  0  0
   -1.5419   -2.2295   -2.9306 H   0  0  0  0  0  0  0  0  0  0  0  0
   -0.2585   -1.6161    0.4310 H   0  0  0  0  0  0  0  0  0  0  0  0
    1.2663   -2.7633   -0.6679 H   0  0  0  0  0  0  0  0  0  0  0  0
  1  2  1  0
  2  3  2  0
  2  4  1  0
  4  5  2  0
  5  6  1  0
  5  7  1  0
  7  8  1  0
  8  9  2  0
  7 10  1  0
 10 11  1  0
 11 12  1  0
 12 13  1  0
 13 14  1  0
 14 15  1  0
 15 16  1  0
 15 17  1  0
 15 18  2  0
 12 19  1  0
 19 20  1  0
 19 21  1  0
 21 22  1  0
  9  4  1  0
 21 10  1  0
  1 23  1  0
  1 24  1  0
  6 25  1  0
  6 26  1  0
  8 27  1  0
 10 28  1  6
 12 29  1  6
 13 30  1  0
 13 31  1  0
 16 32  1  0
 17 33  1  0
 19 34  1  1
 20 35  1  0
 21 36  1  1
 22 37  1  0
M  END
$$$$
