
     RDKit          3D

 81 82  0  0  0  0  0  0  0  0999 V2000
    0.0000    0.0000    0.0000 Cl  0  0  0  0  0 15  0  0  0  0  0  0
    0.0000    0.0000    0.0000 Cl  0  0  0  0  0 15  0  0  0  0  0  0
    0.0000    0.0000    0.0000 Sn  0  0  0  0  0 15  0  0  0  0  0  0
   -5.1371   -3.9832   -2.5081 C   0  0  0  0  0  0  0  0  0  0  0  0
   -4.4309   -4.3708   -1.2139 C   0  0  0  0  0  0  0  0  0  0  0  0
   -3.1037   -3.6630   -1.0962 C   0  0  0  0  0  0  0  0  0  0  0  0
   -2.8662   -2.3897   -0.5880 C   0  0  0  0  0  0  0  0  0  0  0  0
   -1.5500   -2.0826   -0.6493 N   0  0  0  0  0  2  0  0  0  0  0  0
   -0.9504   -3.1543   -1.2163 C   0  0  0  0  0  0  0  0  0  0  0  0
    0.4247   -3.2742   -1.4442 C   0  0  0  0  0  0  0  0  0  0  0  0
    1.3875   -2.3086   -1.1421 C   0  0  0  0  0  0  0  0  0  0  0  0
    1.1292   -1.0958   -0.6030 N   0  0  0  0  0  0  0  0  0  0  0  0
    2.3245   -0.4695   -0.5213 C   0  0  0  0  0  0  0  0  0  0  0  0
    2.5322    0.7990    0.0238 C   0  0  0  0  0  0  0  0  0  0  0  0
    1.5389    1.6428    0.5309 C   0  0  0  0  0  0  0  0  0  0  0  0
    0.2160    1.3614    0.5340 N   0  0  0  0  0  2  0  0  0  0  0  0
   -0.3874    2.4502    1.0627 C   0  0  0  0  0  0  0  0  0  0  0  0
   -1.7640    2.5764    1.2748 C   0  0  0  0  0  0  0  0  0  0  0  0
   -2.7248    1.6031    0.9898 C   0  0  0  0  0  0  0  0  0  0  0  0
   -2.4632    0.3762    0.4848 N   0  0  0  0  0  0  0  0  0  0  0  0
   -3.6580   -0.2528    0.4122 C   0  0  0  0  0  0  0  0  0  0  0  0
   -3.8612   -1.5387   -0.0943 C   0  0  0  0  0  0  0  0  0  0  0  0
   -4.7305    0.6114    0.9175 C   0  0  0  0  0  0  0  0  0  0  0  0
   -6.1953    0.2818    0.9862 C   0  0  0  0  0  0  0  0  0  0  0  0
   -4.1632    1.7690    1.2314 C   0  0  0  0  0  0  0  0  0  0  0  0
   -4.8548    2.9895    1.7836 C   0  0  0  0  0  0  0  0  0  0  0  0
   -4.8396    2.9753    3.3080 C   0  0  0  0  0  0  0  0  0  0  0  0
    0.5445    3.4313    1.3779 C   0  0  0  0  0  0  0  0  0  0  0  0
    0.2688    4.7785    1.9860 C   0  0  0  0  0  0  0  0  0  0  0  0
    1.7820    2.8990    1.0758 C   0  0  0  0  0  0  0  0  0  0  0  0
    3.1190    3.5755    1.2518 C   0  0  0  0  0  0  0  0  0  0  0  0
    3.5335    4.2928   -0.0342 C   0  0  0  0  0  0  0  0  0  0  0  0
    4.8850    4.9122    0.1261 C   0  0  0  0  0  0  0  0  0  0  0  0
    6.0262    4.1580   -0.1287 O   0  0  0  0  0  0  0  0  0  0  0  0
    4.9917    6.1008    0.5306 O   0  0  0  0  0  0  0  0  0  0  0  0
    3.3940   -1.3196   -1.0566 C   0  0  0  0  0  0  0  0  0  0  0  0
    4.8577   -0.9732   -1.1574 C   0  0  0  0  0  0  0  0  0  0  0  0
    5.5718   -1.2642    0.1638 C   0  0  0  0  0  0  0  0  0  0  0  0
    7.0083   -0.8574    0.0811 C   0  0  0  0  0  0  0  0  0  0  0  0
    7.3737    0.4537    0.3699 O   0  0  0  0  0  0  0  0  0  0  0  0
    7.8803   -1.6883   -0.2891 O   0  0  0  0  0  0  0  0  0  0  0  0
    2.8243   -2.4689   -1.3947 C   0  0  0  0  0  0  0  0  0  0  0  0
    3.5066   -3.6623   -2.0019 C   0  0  0  0  0  0  0  0  0  0  0  0
   -1.8818   -4.1347   -1.5333 C   0  0  0  0  0  0  0  0  0  0  0  0
   -1.6073   -5.4691   -2.1697 C   0  0  0  0  0  0  0  0  0  0  0  0
   -4.5143   -4.2622   -3.3848 H   0  0  0  0  0  0  0  0  0  0  0  0
   -5.3306   -2.8896   -2.5303 H   0  0  0  0  0  0  0  0  0  0  0  0
   -6.1079   -4.5175   -2.5765 H   0  0  0  0  0  0  0  0  0  0  0  0
   -4.2847   -5.4706   -1.1876 H   0  0  0  0  0  0  0  0  0  0  0  0
   -5.0784   -4.1263   -0.3465 H   0  0  0  0  0  0  0  0  0  0  0  0
    0.7765   -4.1919   -1.8923 H   0  0  0  0  0  0  0  0  0  0  0  0
    3.5506    1.1559    0.0491 H   0  0  0  0  0  0  0  0  0  0  0  0
   -2.1163    3.4970    1.7162 H   0  0  0  0  0  0  0  0  0  0  0  0
   -4.8805   -1.8927   -0.1225 H   0  0  0  0  0  0  0  0  0  0  0  0
   -6.3375   -0.7823    1.2639 H   0  0  0  0  0  0  0  0  0  0  0  0
   -6.6640    0.4703   -0.0018 H   0  0  0  0  0  0  0  0  0  0  0  0
   -6.7087    0.8897    1.7589 H   0  0  0  0  0  0  0  0  0  0  0  0
   -5.9035    3.0410    1.4225 H   0  0  0  0  0  0  0  0  0  0  0  0
   -4.3518    3.9080    1.4163 H   0  0  0  0  0  0  0  0  0  0  0  0
   -5.3512    3.8822    3.6933 H   0  0  0  0  0  0  0  0  0  0  0  0
   -5.3702    2.0775    3.6906 H   0  0  0  0  0  0  0  0  0  0  0  0
   -3.7943    2.9698    3.6840 H   0  0  0  0  0  0  0  0  0  0  0  0
    1.1214    5.4706    1.8346 H   0  0  0  0  0  0  0  0  0  0  0  0
    0.0796    4.6631    3.0733 H   0  0  0  0  0  0  0  0  0  0  0  0
   -0.6157    5.2435    1.5041 H   0  0  0  0  0  0  0  0  0  0  0  0
    3.0719    4.3013    2.0910 H   0  0  0  0  0  0  0  0  0  0  0  0
    3.8863    2.8244    1.5366 H   0  0  0  0  0  0  0  0  0  0  0  0
    2.7892    5.0809   -0.2829 H   0  0  0  0  0  0  0  0  0  0  0  0
    3.5670    3.5704   -0.8784 H   0  0  0  0  0  0  0  0  0  0  0  0
    6.9498    4.5562   -0.0082 H   0  0  0  0  0  0  0  0  0  0  0  0
    4.9646    0.1012   -1.4190 H   0  0  0  0  0  0  0  0  0  0  0  0
    5.3351   -1.5458   -1.9813 H   0  0  0  0  0  0  0  0  0  0  0  0
    5.0858   -0.7014    0.9901 H   0  0  0  0  0  0  0  0  0  0  0  0
    5.5044   -2.3491    0.3983 H   0  0  0  0  0  0  0  0  0  0  0  0
    8.3397    0.7509    0.3018 H   0  0  0  0  0  0  0  0  0  0  0  0
    4.5689   -3.7188   -1.6874 H   0  0  0  0  0  0  0  0  0  0  0  0
    3.4527   -3.5969   -3.1082 H   0  0  0  0  0  0  0  0  0  0  0  0
    3.0189   -4.5990   -1.6640 H   0  0  0  0  0  0  0  0  0  0  0  0
   -1.1825   -6.1606   -1.4130 H   0  0  0  0  0  0  0  0  0  0  0  0
   -0.8903   -5.3534   -3.0085 H   0  0  0  0  0  0  0  0  0  0  0  0
   -2.5312   -5.9128   -2.5918 H   0  0  0  0  0  0  0  0  0  0  0  0
  4  5  1  0
  5  6  1  0
  6  7  2  0
  7  8  1  0
  8  9  1  0
  9 10  1  0
 10 11  2  0
 11 12  1  0
 12 13  2  0
 13 14  1  0
 14 15  2  0
 15 16  1  0
 16 17  1  0
 17 18  2  0
 18 19  1  0
 19 20  2  0
 20 21  1  0
 21 22  2  0
 21 23  1  0
 23 24  1  0
 23 25  2  0
 25 26  1  0
 26 27  1  0
 17 28  1  0
 28 29  1  0
 28 30  2  0
 30 31  1  0
 31 32  1  0
 32 33  1  0
 33 34  1  0
 33 35  2  0
 13 36  1  0
 36 37  1  0
 37 38  1  0
 38 39  1  0
 39 40  1  0
 39 41  2  0
 36 42  2  0
 42 43  1  0
  9 44  2  0
 44 45  1  0
 44  6  1  0
 22  7  1  0
 42 11  1  0
 30 15  1  0
 25 19  1  0
  4 46  1  0
  4 47  1  0
  4 48  1  0
  5 49  1  0
  5 50  1  0
 10 51  1  0
 14 52  1  0
 18 53  1  0
 22 54  1  0
 24 55  1  0
 24 56  1  0
 24 57  1  0
 26 58  1  0
 26 59  1  0
 27 60  1  0
 27 61  1  0
 27 62  1  0
 29 63  1  0
 29 64  1  0
 29 65  1  0
 31 66  1  0
 31 67  1  0
 32 68  1  0
 32 69  1  0
 34 70  1  0
 37 71  1  0
 37 72  1  0
 38 73  1  0
 38 74  1  0
 40 75  1  0
 43 76  1  0
 43 77  1  0
 43 78  1  0
 45 79  1  0
 45 80  1  0
 45 81  1  0
M  CHG  5   1  -1   2  -1   3   4   8  -1  16  -1
M  END
$$$$
