
     RDKit          3D

 30 32  0  0  0  0  0  0  0  0999 V2000
   -4.3190   -0.3005   -0.4349 N   0  0  0  0  0  0  0  0  0  0  0  0
   -3.1106   -0.9255   -0.8675 C   0  0  0  0  0  0  0  0  0  0  0  0
   -3.1356   -1.7179   -1.8474 O   0  0  0  0  0  0  0  0  0  0  0  0
   -1.8068   -0.5976   -0.1995 C   0  0  2  0  0  0  0  0  0  0  0  0
   -1.1196    0.5761   -0.9093 C   0  0  0  0  0  0  0  0  0  0  0  0
    0.2541    0.8775   -0.2673 C   0  0  2  0  0  0  0  0  0  0  0  0
    0.0788    1.5958    0.9973 N   0  0  0  0  0  0  0  0  0  0  0  0
    0.6629    2.8839    0.8610 C   0  0  0  0  0  0  0  0  0  0  0  0
    0.6761    3.7399    1.7835 O   0  0  0  0  0  0  0  0  0  0  0  0
    1.2329    3.1047   -0.4133 N   0  0  0  0  0  0  0  0  0  0  0  0
    0.9972    1.8893   -1.1085 C   0  0  0  0  0  0  0  0  0  0  0  0
    1.3824    1.6933   -2.2919 O   0  0  0  0  0  0  0  0  0  0  0  0
    1.0700   -0.3868   -0.0322 C   0  0  0  0  0  0  0  0  0  0  0  0
    0.4265   -1.6437   -0.0098 C   0  0  0  0  0  0  0  0  0  0  0  0
   -0.9539   -1.7414   -0.2145 O   0  0  0  0  0  0  0  0  0  0  0  0
    1.1682   -2.8094    0.2085 C   0  0  0  0  0  0  0  0  0  0  0  0
    2.5422   -2.7347    0.4467 C   0  0  0  0  0  0  0  0  0  0  0  0
    3.1811   -1.4932    0.4725 C   0  0  0  0  0  0  0  0  0  0  0  0
    4.5118   -1.4220    0.7228 F   0  0  0  0  0  0  0  0  0  0  0  0
    2.4504   -0.3237    0.2432 C   0  0  0  0  0  0  0  0  0  0  0  0
   -5.2232   -0.5170   -0.9099 H   0  0  0  0  0  0  0  0  0  0  0  0
   -4.3128    0.3844    0.3531 H   0  0  0  0  0  0  0  0  0  0  0  0
   -2.0052   -0.3217    0.8590 H   0  0  0  0  0  0  0  0  0  0  0  0
   -1.7684    1.4794   -0.8622 H   0  0  0  0  0  0  0  0  0  0  0  0
   -0.9768    0.3110   -1.9814 H   0  0  0  0  0  0  0  0  0  0  0  0
   -0.3788    1.2266    1.8605 H   0  0  0  0  0  0  0  0  0  0  0  0
    1.7294    3.9563   -0.7571 H   0  0  0  0  0  0  0  0  0  0  0  0
    0.6752   -3.7732    0.2068 H   0  0  0  0  0  0  0  0  0  0  0  0
    3.1093   -3.6398    0.6223 H   0  0  0  0  0  0  0  0  0  0  0  0
    2.9621    0.6298    0.2786 H   0  0  0  0  0  0  0  0  0  0  0  0
  1  2  1  0
  2  3  2  0
  2  4  1  0
  4  5  1  0
  5  6  1  0
  6  7  1  1
  7  8  1  0
  8  9  2  0
  8 10  1  0
 10 11  1  0
 11 12  2  0
  6 13  1  0
 13 14  2  0
 14 15  1  0
 14 16  1  0
 16 17  2  0
 17 18  1  0
 18 19  1  0
 18 20  2  0
 15  4  1  0
 11  6  1  0
 20 13  1  0
  1 21  1  0
  1 22  1  0
  4 23  1  1
  5 24  1  0
  5 25  1  0
  7 26  1  0
 10 27  1  0
 16 28  1  0
 17 29  1  0
 20 30  1  0
M  END
$$$$
