
     RDKit          3D

 49 50  0  0  0  0  0  0  0  0999 V2000
    2.3802   -2.9078   -1.0998 O   0  0  0  0  0  0  0  0  0  0  0  0
    2.7985   -1.6348   -0.6797 C   0  0  0  0  0  0  0  0  0  0  0  0
    1.5776   -0.7130   -0.4931 C   0  0  0  0  0  0  0  0  0  0  0  0
    0.6152   -1.2952    0.4556 N   0  0  0  0  0  0  0  0  0  0  0  0
   -0.6997   -0.6450    0.3563 C   0  0  0  0  0  0  0  0  0  0  0  0
   -1.5786   -1.3767   -0.6621 C   0  0  0  0  0  0  0  0  0  0  0  0
   -2.8913   -0.7402   -0.7551 N   0  0  0  0  0  0  0  0  0  0  0  0
   -3.8922   -0.8862    0.2670 C   0  0  0  0  0  0  0  0  0  0  0  0
   -3.7089   -1.7146    1.2009 O   0  0  0  0  0  0  0  0  0  0  0  0
   -5.1068   -0.1078    0.2333 N   0  0  0  0  0  0  0  0  0  0  0  0
   -5.2150    1.0692   -0.6375 C   0  0  0  0  0  0  0  0  0  0  0  0
   -6.2609    2.0455   -0.0901 C   0  0  0  0  0  0  0  0  0  0  0  0
   -7.4779    1.3803    0.1826 O   0  0  0  0  0  0  0  0  0  0  0  0
   -7.2848    0.4581    1.2363 C   0  0  0  0  0  0  0  0  0  0  0  0
   -6.3379   -0.6662    0.8077 C   0  0  0  0  0  0  0  0  0  0  0  0
    3.6311   -1.7826    0.6054 C   0  0  0  0  0  0  0  0  0  0  0  0
    4.0324   -0.5113    1.1195 O   0  0  0  0  0  0  0  0  0  0  0  0
    5.0284    0.3150    0.5739 C   0  0  0  0  0  0  0  0  0  0  0  0
    5.8751   -0.0982   -0.4742 C   0  0  0  0  0  0  0  0  0  0  0  0
    6.8491    0.7704   -0.9768 C   0  0  0  0  0  0  0  0  0  0  0  0
    6.9933    2.0537   -0.4413 C   0  0  0  0  0  0  0  0  0  0  0  0
    7.9677    2.9078   -0.9527 O   0  0  0  0  0  0  0  0  0  0  0  0
    6.1579    2.4671    0.6043 C   0  0  0  0  0  0  0  0  0  0  0  0
    5.1836    1.6004    1.1081 C   0  0  0  0  0  0  0  0  0  0  0  0
    2.0980   -2.8202   -2.0479 H   0  0  0  0  0  0  0  0  0  0  0  0
    3.4500   -1.1867   -1.4638 H   0  0  0  0  0  0  0  0  0  0  0  0
    1.9053    0.2919   -0.1429 H   0  0  0  0  0  0  0  0  0  0  0  0
    1.1069   -0.5742   -1.4912 H   0  0  0  0  0  0  0  0  0  0  0  0
    0.9784   -1.1180    1.4216 H   0  0  0  0  0  0  0  0  0  0  0  0
   -0.6063    0.4311    0.0825 H   0  0  0  0  0  0  0  0  0  0  0  0
   -1.2014   -0.6869    1.3485 H   0  0  0  0  0  0  0  0  0  0  0  0
   -1.6948   -2.4440   -0.3733 H   0  0  0  0  0  0  0  0  0  0  0  0
   -1.0933   -1.3490   -1.6609 H   0  0  0  0  0  0  0  0  0  0  0  0
   -3.1243   -0.2366   -1.6395 H   0  0  0  0  0  0  0  0  0  0  0  0
   -4.2414    1.6031   -0.6924 H   0  0  0  0  0  0  0  0  0  0  0  0
   -5.5083    0.7435   -1.6589 H   0  0  0  0  0  0  0  0  0  0  0  0
   -5.8727    2.5649    0.8163 H   0  0  0  0  0  0  0  0  0  0  0  0
   -6.4502    2.8286   -0.8542 H   0  0  0  0  0  0  0  0  0  0  0  0
   -8.2674    0.0138    1.5010 H   0  0  0  0  0  0  0  0  0  0  0  0
   -6.9005    0.9641    2.1518 H   0  0  0  0  0  0  0  0  0  0  0  0
   -6.8381   -1.3013    0.0450 H   0  0  0  0  0  0  0  0  0  0  0  0
   -6.1144   -1.2941    1.6970 H   0  0  0  0  0  0  0  0  0  0  0  0
    4.5189   -2.4248    0.4240 H   0  0  0  0  0  0  0  0  0  0  0  0
    3.0266   -2.2985    1.3804 H   0  0  0  0  0  0  0  0  0  0  0  0
    5.7965   -1.0855   -0.9058 H   0  0  0  0  0  0  0  0  0  0  0  0
    7.4945    0.4448   -1.7829 H   0  0  0  0  0  0  0  0  0  0  0  0
    8.0971    3.8434   -0.5857 H   0  0  0  0  0  0  0  0  0  0  0  0
    6.2624    3.4583    1.0268 H   0  0  0  0  0  0  0  0  0  0  0  0
    4.5424    1.9300    1.9158 H   0  0  0  0  0  0  0  0  0  0  0  0
  1  2  1  0
  2  3  1  0
  3  4  1  0
  4  5  1  0
  5  6  1  0
  6  7  1  0
  7  8  1  0
  8  9  2  0
  8 10  1  0
 10 11  1  0
 11 12  1  0
 12 13  1  0
 13 14  1  0
 14 15  1  0
  2 16  1  0
 16 17  1  0
 17 18  1  0
 18 19  2  0
 19 20  1  0
 20 21  2  0
 21 22  1  0
 21 23  1  0
 23 24  2  0
 15 10  1  0
 24 18  1  0
  1 25  1  0
  2 26  1  0
  3 27  1  0
  3 28  1  0
  4 29  1  0
  5 30  1  0
  5 31  1  0
  6 32  1  0
  6 33  1  0
  7 34  1  0
 11 35  1  0
 11 36  1  0
 12 37  1  0
 12 38  1  0
 14 39  1  0
 14 40  1  0
 15 41  1  0
 15 42  1  0
 16 43  1  0
 16 44  1  0
 19 45  1  0
 20 46  1  0
 22 47  1  0
 23 48  1  0
 24 49  1  0
M  END
$$$$
