
     RDKit          3D

 28 29  0  0  0  0  0  0  0  0999 V2000
   -6.5546    0.9797    1.7540 Cl  0  0  0  0  0  0  0  0  0  0  0  0
   -5.0103    0.6827    0.9770 C   0  0  0  0  0  0  0  0  0  0  0  0
   -4.9621    0.0291   -0.2581 C   0  0  0  0  0  0  0  0  0  0  0  0
   -3.7317   -0.2058   -0.8794 C   0  0  0  0  0  0  0  0  0  0  0  0
   -2.5358    0.1970   -0.2646 C   0  0  0  0  0  0  0  0  0  0  0  0
   -1.2852   -0.0361   -0.9353 N   0  0  0  0  0  0  0  0  0  0  0  0
   -0.0454   -0.2983   -0.2603 C   0  0  0  0  0  0  0  0  0  0  0  0
   -0.0405   -0.5937    0.9659 O   0  0  0  0  0  0  0  0  0  0  0  0
    1.1796   -0.3037   -1.0094 N   0  0  0  0  0  0  0  0  0  0  0  0
    2.4884   -0.3492   -0.4152 C   0  0  0  0  0  0  0  0  0  0  0  0
    2.7643    0.2963    0.8038 C   0  0  0  0  0  0  0  0  0  0  0  0
    4.0520    0.2580    1.3526 C   0  0  0  0  0  0  0  0  0  0  0  0
    4.3506    1.0752    2.8809 Cl  0  0  0  0  0  0  0  0  0  0  0  0
    5.0810   -0.4178    0.6758 C   0  0  0  0  0  0  0  0  0  0  0  0
    6.7114   -0.4891    1.3307 Cl  0  0  0  0  0  0  0  0  0  0  0  0
    4.8142   -1.0404   -0.5479 C   0  0  0  0  0  0  0  0  0  0  0  0
    3.5287   -1.0000   -1.0938 C   0  0  0  0  0  0  0  0  0  0  0  0
   -2.5942    0.8744    0.9678 C   0  0  0  0  0  0  0  0  0  0  0  0
   -3.8262    1.1088    1.5865 C   0  0  0  0  0  0  0  0  0  0  0  0
   -5.8764   -0.2954   -0.7385 H   0  0  0  0  0  0  0  0  0  0  0  0
   -3.7082   -0.7112   -1.8368 H   0  0  0  0  0  0  0  0  0  0  0  0
   -1.2908   -0.0922   -1.9789 H   0  0  0  0  0  0  0  0  0  0  0  0
    1.1111   -0.3535   -2.0511 H   0  0  0  0  0  0  0  0  0  0  0  0
    1.9910    0.8515    1.3179 H   0  0  0  0  0  0  0  0  0  0  0  0
    5.6042   -1.5558   -1.0793 H   0  0  0  0  0  0  0  0  0  0  0  0
    3.3394   -1.4858   -2.0428 H   0  0  0  0  0  0  0  0  0  0  0  0
   -1.6947    1.2454    1.4404 H   0  0  0  0  0  0  0  0  0  0  0  0
   -3.8596    1.6297    2.5350 H   0  0  0  0  0  0  0  0  0  0  0  0
  1  2  1  0
  2  3  2  0
  3  4  1  0
  4  5  2  0
  5  6  1  0
  6  7  1  0
  7  8  2  0
  7  9  1  0
  9 10  1  0
 10 11  2  0
 11 12  1  0
 12 13  1  0
 12 14  2  0
 14 15  1  0
 14 16  1  0
 16 17  2  0
  5 18  1  0
 18 19  2  0
 19  2  1  0
 17 10  1  0
  3 20  1  0
  4 21  1  0
  6 22  1  0
  9 23  1  0
 11 24  1  0
 16 25  1  0
 17 26  1  0
 18 27  1  0
 19 28  1  0
M  END
$$$$
