
     RDKit          3D

 42 44  0  0  0  0  0  0  0  0999 V2000
    0.0354    0.7757    0.9672 C   0  0  1  0  0  0  0  0  0  0  0  0
   -0.1724    1.5444   -0.6746 S   0  0  0  0  0  0  0  0  0  0  0  0
   -2.0020    1.5107   -0.5263 C   0  0  0  0  0  0  0  0  0  0  0  0
   -2.5742    0.1027   -0.3993 C   0  0  0  0  0  0  0  0  0  0  0  0
   -3.8309   -0.2097   -1.1852 C   0  0  0  0  0  0  0  0  0  0  0  0
   -4.9783   -0.1746   -0.3382 O   0  0  0  0  0  0  0  0  0  0  0  0
   -5.5418    1.0085    0.1518 C   0  0  0  0  0  0  0  0  0  0  0  0
   -6.7057    0.9356    1.0800 C   0  0  0  0  0  0  0  0  0  0  0  0
   -5.1111    2.1332   -0.2210 O   0  0  0  0  0  0  0  0  0  0  0  0
   -1.9619   -0.8169    0.3967 C   0  0  0  0  0  0  0  0  0  0  0  0
   -0.6914   -0.4685    0.9591 N   0  0  0  0  0  0  0  0  0  0  0  0
    0.5529   -1.1600    1.3768 C   0  0  0  0  0  0  0  0  0  0  0  0
    0.8718   -2.3453    1.6550 O   0  0  0  0  0  0  0  0  0  0  0  0
    1.2948    0.1387    1.2842 C   0  0  1  0  0  0  0  0  0  0  0  0
    2.2685    0.1317    0.1893 N   0  0  0  0  0  0  0  0  0  0  0  0
    3.1709    1.2261   -0.0205 C   0  0  0  0  0  0  0  0  0  0  0  0
    3.1400    2.2312    0.7405 O   0  0  0  0  0  0  0  0  0  0  0  0
    4.1827    1.1641   -1.1215 C   0  0  0  0  0  0  0  0  0  0  0  0
    5.3569    0.3457   -0.6898 C   0  0  0  0  0  0  0  0  0  0  0  0
    5.4854   -1.0304   -0.8291 C   0  0  0  0  0  0  0  0  0  0  0  0
    6.6632   -1.5325   -0.2630 C   0  0  0  0  0  0  0  0  0  0  0  0
    7.4549   -0.5587    0.3329 C   0  0  0  0  0  0  0  0  0  0  0  0
    6.6871    0.9277    0.1582 S   0  0  0  0  0  0  0  0  0  0  0  0
   -2.4849   -2.1888    0.6183 C   0  0  0  0  0  0  0  0  0  0  0  0
   -3.8510   -2.4522    0.6032 O   0  0  0  0  0  0  0  0  0  0  0  0
   -1.6870   -3.1304    0.8670 O   0  0  0  0  0  0  0  0  0  0  0  0
   -0.3235    1.4379    1.7870 H   0  0  0  0  0  0  0  0  0  0  0  0
   -2.4187    2.0314   -1.4132 H   0  0  0  0  0  0  0  0  0  0  0  0
   -2.3009    2.0997    0.3668 H   0  0  0  0  0  0  0  0  0  0  0  0
   -3.9721    0.5031   -2.0260 H   0  0  0  0  0  0  0  0  0  0  0  0
   -3.7461   -1.2128   -1.6533 H   0  0  0  0  0  0  0  0  0  0  0  0
   -7.6476    1.0216    0.4996 H   0  0  0  0  0  0  0  0  0  0  0  0
   -6.6545    1.7604    1.8218 H   0  0  0  0  0  0  0  0  0  0  0  0
   -6.6979   -0.0337    1.6212 H   0  0  0  0  0  0  0  0  0  0  0  0
    1.7357    0.4365    2.2608 H   0  0  0  0  0  0  0  0  0  0  0  0
    2.3386   -0.7030   -0.4371 H   0  0  0  0  0  0  0  0  0  0  0  0
    4.5216    2.1890   -1.3853 H   0  0  0  0  0  0  0  0  0  0  0  0
    3.7221    0.7162   -2.0280 H   0  0  0  0  0  0  0  0  0  0  0  0
    4.7485   -1.6545   -1.3174 H   0  0  0  0  0  0  0  0  0  0  0  0
    6.9278   -2.5813   -0.2800 H   0  0  0  0  0  0  0  0  0  0  0  0
    8.3987   -0.7313    0.8321 H   0  0  0  0  0  0  0  0  0  0  0  0
   -4.2036   -3.3872    0.7690 H   0  0  0  0  0  0  0  0  0  0  0  0
  1  2  1  0
  2  3  1  0
  3  4  1  0
  4  5  1  0
  5  6  1  0
  6  7  1  0
  7  8  1  0
  7  9  2  0
  4 10  2  0
 10 11  1  0
 11 12  1  0
 12 13  2  0
 12 14  1  0
 14 15  1  0
 15 16  1  0
 16 17  2  0
 16 18  1  0
 18 19  1  0
 19 20  2  0
 20 21  1  0
 21 22  2  0
 22 23  1  0
 10 24  1  0
 24 25  1  0
 24 26  2  0
 11  1  1  0
 23 19  1  0
 14  1  1  0
  1 27  1  1
  3 28  1  0
  3 29  1  0
  5 30  1  0
  5 31  1  0
  8 32  1  0
  8 33  1  0
  8 34  1  0
 14 35  1  1
 15 36  1  0
 18 37  1  0
 18 38  1  0
 20 39  1  0
 21 40  1  0
 22 41  1  0
 25 42  1  0
M  END
$$$$
