
     RDKit          3D

 18 17  0  0  0  0  0  0  0  0999 V2000
    2.8605   -0.0530    1.0087 N   0  0  0  0  0  0  0  0  0  0  0  0
    2.2462    0.1438   -0.2998 C   0  0  0  0  0  0  0  0  0  0  0  0
    1.0007   -0.6920   -0.4123 C   0  0  0  0  0  0  0  0  0  0  0  0
    1.0926   -1.9099   -0.3668 O   0  0  0  0  0  0  0  0  0  0  0  0
   -0.3537   -0.0591   -0.5951 C   0  0  0  0  0  0  0  0  0  0  0  0
   -1.2239   -0.2786    0.6448 C   0  0  0  0  0  0  0  0  0  0  0  0
   -2.5658    0.3563    0.4619 C   0  0  0  0  0  0  0  0  0  0  0  0
   -3.5931   -0.3579   -0.1465 O   0  0  0  0  0  0  0  0  0  0  0  0
   -2.7547    1.5491    0.8218 O   0  0  0  0  0  0  0  0  0  0  0  0
    3.7560    0.4868    1.0243 H   0  0  0  0  0  0  0  0  0  0  0  0
    2.2383    0.3817    1.7290 H   0  0  0  0  0  0  0  0  0  0  0  0
    2.0202    1.2228   -0.4487 H   0  0  0  0  0  0  0  0  0  0  0  0
    2.9590   -0.1683   -1.0936 H   0  0  0  0  0  0  0  0  0  0  0  0
   -0.8436   -0.5096   -1.4860 H   0  0  0  0  0  0  0  0  0  0  0  0
   -0.2495    1.0321   -0.7810 H   0  0  0  0  0  0  0  0  0  0  0  0
   -1.3614   -1.3672    0.8238 H   0  0  0  0  0  0  0  0  0  0  0  0
   -0.7251    0.1598    1.5372 H   0  0  0  0  0  0  0  0  0  0  0  0
   -4.5029    0.0631   -0.2924 H   0  0  0  0  0  0  0  0  0  0  0  0
  1  2  1  0
  2  3  1  0
  3  4  2  0
  3  5  1  0
  5  6  1  0
  6  7  1  0
  7  8  1  0
  7  9  2  0
  1 10  1  0
  1 11  1  0
  2 12  1  0
  2 13  1  0
  5 14  1  0
  5 15  1  0
  6 16  1  0
  6 17  1  0
  8 18  1  0
M  END
$$$$
