
     RDKit          3D

 29 30  0  0  0  0  0  0  0  0999 V2000
    3.3165    1.5211   -1.1607 O   0  0  0  0  0  0  0  0  0  0  0  0
    1.9492    1.5341   -1.4734 C   0  0  0  0  0  0  0  0  0  0  0  0
    1.1410    0.6716   -0.4884 C   0  0  1  0  0  0  0  0  0  0  0  0
   -0.2351    0.9401   -0.7135 O   0  0  0  0  0  0  0  0  0  0  0  0
   -1.0845    0.2567    0.1982 C   0  0  1  0  0  0  0  0  0  0  0  0
   -0.9270    0.7659    1.5685 N   0  0  0  0  0  0  0  0  0  0  0  0
   -2.1533    1.3629    1.9638 C   0  0  0  0  0  0  0  0  0  0  0  0
   -2.3396    1.8787    3.0967 O   0  0  0  0  0  0  0  0  0  0  0  0
   -3.1470    1.3077    0.9621 N   0  0  0  0  0  0  0  0  0  0  0  0
   -2.5092    0.6372   -0.1141 C   0  0  0  0  0  0  0  0  0  0  0  0
   -3.0836    0.4100   -1.2119 O   0  0  0  0  0  0  0  0  0  0  0  0
   -0.9062   -1.2826    0.1262 C   0  0  2  0  0  0  0  0  0  0  0  0
   -1.6531   -1.9189    1.1333 O   0  0  0  0  0  0  0  0  0  0  0  0
    0.5756   -1.6558    0.2876 C   0  0  1  0  0  0  0  0  0  0  0  0
    0.7691   -3.0348    0.0876 O   0  0  0  0  0  0  0  0  0  0  0  0
    1.4449   -0.8346   -0.6775 C   0  0  2  0  0  0  0  0  0  0  0  0
    2.7974   -1.1008   -0.4005 O   0  0  0  0  0  0  0  0  0  0  0  0
    3.4325    2.1031   -0.3647 H   0  0  0  0  0  0  0  0  0  0  0  0
    1.5703    2.5818   -1.4529 H   0  0  0  0  0  0  0  0  0  0  0  0
    1.8124    1.1556   -2.5090 H   0  0  0  0  0  0  0  0  0  0  0  0
    1.4336    0.9891    0.5370 H   0  0  0  0  0  0  0  0  0  0  0  0
   -0.0994    0.6409    2.1926 H   0  0  0  0  0  0  0  0  0  0  0  0
   -4.1244    1.6721    1.0045 H   0  0  0  0  0  0  0  0  0  0  0  0
   -1.2431   -1.6353   -0.8785 H   0  0  0  0  0  0  0  0  0  0  0  0
   -2.5852   -1.9938    0.8001 H   0  0  0  0  0  0  0  0  0  0  0  0
    0.8894   -1.4220    1.3293 H   0  0  0  0  0  0  0  0  0  0  0  0
    0.5037   -3.2469   -0.8456 H   0  0  0  0  0  0  0  0  0  0  0  0
    1.1872   -1.1271   -1.7251 H   0  0  0  0  0  0  0  0  0  0  0  0
    3.2675   -1.1757   -1.2717 H   0  0  0  0  0  0  0  0  0  0  0  0
  1  2  1  0
  2  3  1  0
  3  4  1  0
  5  4  1  6
  5  6  1  0
  6  7  1  0
  7  8  2  0
  7  9  1  0
  9 10  1  0
 10 11  2  0
  5 12  1  0
 12 13  1  0
 12 14  1  0
 14 15  1  0
 14 16  1  0
 16 17  1  0
 16  3  1  0
 10  5  1  0
  1 18  1  0
  2 19  1  0
  2 20  1  0
  3 21  1  1
  6 22  1  0
  9 23  1  0
 12 24  1  6
 13 25  1  0
 14 26  1  1
 15 27  1  0
 16 28  1  6
 17 29  1  0
M  END
$$$$
