
     RDKit          3D

 26 27  0  0  0  0  0  0  0  0999 V2000
    2.4375   -0.1718   -0.8209 C   0  0  1  0  0  0  0  0  0  0  0  0
    3.0221    1.2029   -0.4927 C   0  0  0  0  0  0  0  0  0  0  0  0
    4.3325    1.0784   -0.0101 O   0  0  0  0  0  0  0  0  0  0  0  0
    2.4389   -0.9791    0.3367 O   0  0  0  0  0  0  0  0  0  0  0  0
    1.1059   -1.2920    0.5872 C   0  0  0  0  0  0  0  0  0  0  0  0
    0.3503   -0.9441   -0.6659 C   0  0  2  0  0  0  0  0  0  0  0  0
    1.1377   -0.0148   -1.3433 O   0  0  0  0  0  0  0  0  0  0  0  0
   -0.9806   -0.3870   -0.3528 N   0  0  0  0  0  0  0  0  0  0  0  0
   -1.1113    0.9349   -0.0194 C   0  0  0  0  0  0  0  0  0  0  0  0
   -2.3571    1.4668    0.3059 C   0  0  0  0  0  0  0  0  0  0  0  0
   -3.4669    0.6201    0.3020 C   0  0  0  0  0  0  0  0  0  0  0  0
   -4.6473    1.0650    0.5954 N   0  0  0  0  0  0  0  0  0  0  0  0
   -3.3042   -0.6899   -0.0068 N   0  0  0  0  0  0  0  0  0  0  0  0
   -2.0844   -1.2012   -0.3238 C   0  0  0  0  0  0  0  0  0  0  0  0
   -1.9733   -2.5601   -0.6124 O   0  0  0  0  0  0  0  0  0  0  0  0
    3.0720   -0.6575   -1.5943 H   0  0  0  0  0  0  0  0  0  0  0  0
    2.3999    1.6905    0.2878 H   0  0  0  0  0  0  0  0  0  0  0  0
    3.0035    1.8512   -1.3984 H   0  0  0  0  0  0  0  0  0  0  0  0
    4.9090    0.8961   -0.7977 H   0  0  0  0  0  0  0  0  0  0  0  0
    0.7544   -0.6958    1.4577 H   0  0  0  0  0  0  0  0  0  0  0  0
    1.0068   -2.3734    0.8214 H   0  0  0  0  0  0  0  0  0  0  0  0
    0.2626   -1.8443   -1.3154 H   0  0  0  0  0  0  0  0  0  0  0  0
   -0.2487    1.5897    0.0019 H   0  0  0  0  0  0  0  0  0  0  0  0
   -2.4500    2.5158    0.5602 H   0  0  0  0  0  0  0  0  0  0  0  0
   -4.8240    2.0652    0.8428 H   0  0  0  0  0  0  0  0  0  0  0  0
   -2.7851   -3.1655   -0.5900 H   0  0  0  0  0  0  0  0  0  0  0  0
  1  2  1  0
  2  3  1  0
  1  4  1  0
  4  5  1  0
  5  6  1  0
  6  7  1  0
  6  8  1  0
  8  9  1  0
  9 10  2  0
 10 11  1  0
 11 12  2  3
 11 13  1  0
 13 14  2  0
 14 15  1  0
  7  1  1  0
 14  8  1  0
  1 16  1  6
  2 17  1  0
  2 18  1  0
  3 19  1  0
  5 20  1  0
  5 21  1  0
  6 22  1  6
  9 23  1  0
 10 24  1  0
 12 25  1  0
 15 26  1  0
M  END
$$$$
