
     RDKit          3D

 56 58  0  0  0  0  0  0  0  0999 V2000
    7.0136   -0.8214    2.5154 C   0  0  0  0  0  0  0  0  0  0  0  0
    6.4977    0.0178    1.4872 O   0  0  0  0  0  0  0  0  0  0  0  0
    5.1390    0.1151    1.1471 C   0  0  0  0  0  0  0  0  0  0  0  0
    4.7719    0.9853    0.1083 C   0  0  0  0  0  0  0  0  0  0  0  0
    5.7831    1.7116   -0.5407 O   0  0  0  0  0  0  0  0  0  0  0  0
    5.5610    2.6268   -1.6088 C   0  0  0  0  0  0  0  0  0  0  0  0
    3.4156    1.1050   -0.2538 C   0  0  0  0  0  0  0  0  0  0  0  0
    2.4299    0.3697    0.4208 C   0  0  0  0  0  0  0  0  0  0  0  0
    0.9867    0.4745    0.0065 C   0  0  0  0  0  0  0  0  0  0  0  0
    0.6605   -0.5536   -1.0807 C   0  0  0  0  0  0  0  0  0  0  0  0
   -0.6929   -0.4350   -1.4784 O   0  0  0  0  0  0  0  0  0  0  0  0
   -1.5445   -1.2716   -0.7112 C   0  0  2  0  0  0  0  0  0  0  0  0
   -1.7765   -2.5775   -1.4926 C   0  0  0  0  0  0  0  0  0  0  0  0
   -2.7163   -3.5147   -0.7350 C   0  0  0  0  0  0  0  0  0  0  0  0
   -4.0489   -2.8221   -0.4575 C   0  0  0  0  0  0  0  0  0  0  0  0
   -3.8426   -1.5143    0.3163 C   0  0  0  0  0  0  0  0  0  0  0  0
   -2.8882   -0.5382   -0.4306 C   0  0  1  0  0  0  0  0  0  0  0  0
   -2.5866    0.7289    0.3157 N   0  0  0  0  0  0  0  0  0  0  0  0
   -2.4023    1.8664   -0.6054 C   0  0  0  0  0  0  0  0  0  0  0  0
   -3.7281    2.6131   -0.6992 C   0  0  0  0  0  0  0  0  0  0  0  0
   -4.5507    2.1316    0.4883 C   0  0  1  0  0  0  0  0  0  0  0  0
   -5.6688    1.4016    0.0562 O   0  0  0  0  0  0  0  0  0  0  0  0
   -3.6050    1.2233    1.2594 C   0  0  0  0  0  0  0  0  0  0  0  0
    2.8060   -0.5073    1.4464 C   0  0  0  0  0  0  0  0  0  0  0  0
    4.1473   -0.6312    1.8118 C   0  0  0  0  0  0  0  0  0  0  0  0
    8.1147   -0.6975    2.5658 H   0  0  0  0  0  0  0  0  0  0  0  0
    6.5784   -0.5354    3.4962 H   0  0  0  0  0  0  0  0  0  0  0  0
    6.7856   -1.8848    2.2906 H   0  0  0  0  0  0  0  0  0  0  0  0
    4.9014    3.4542   -1.2719 H   0  0  0  0  0  0  0  0  0  0  0  0
    6.5334    3.0552   -1.9270 H   0  0  0  0  0  0  0  0  0  0  0  0
    5.1045    2.1007   -2.4738 H   0  0  0  0  0  0  0  0  0  0  0  0
    3.1186    1.7646   -1.0582 H   0  0  0  0  0  0  0  0  0  0  0  0
    0.7746    1.4961   -0.3775 H   0  0  0  0  0  0  0  0  0  0  0  0
    0.3303    0.3149    0.8890 H   0  0  0  0  0  0  0  0  0  0  0  0
    1.2931   -0.3402   -1.9688 H   0  0  0  0  0  0  0  0  0  0  0  0
    0.9270   -1.5843   -0.7470 H   0  0  0  0  0  0  0  0  0  0  0  0
   -1.1065   -1.5282    0.2853 H   0  0  0  0  0  0  0  0  0  0  0  0
   -2.2045   -2.3472   -2.4935 H   0  0  0  0  0  0  0  0  0  0  0  0
   -0.8064   -3.0960   -1.6499 H   0  0  0  0  0  0  0  0  0  0  0  0
   -2.8958   -4.4270   -1.3436 H   0  0  0  0  0  0  0  0  0  0  0  0
   -2.2463   -3.8269    0.2237 H   0  0  0  0  0  0  0  0  0  0  0  0
   -4.6966   -3.5019    0.1372 H   0  0  0  0  0  0  0  0  0  0  0  0
   -4.5678   -2.6105   -1.4186 H   0  0  0  0  0  0  0  0  0  0  0  0
   -3.4381   -1.7470    1.3263 H   0  0  0  0  0  0  0  0  0  0  0  0
   -4.8487   -1.0592    0.4248 H   0  0  0  0  0  0  0  0  0  0  0  0
   -3.3803   -0.3063   -1.4049 H   0  0  0  0  0  0  0  0  0  0  0  0
   -2.0575    1.5705   -1.6192 H   0  0  0  0  0  0  0  0  0  0  0  0
   -1.6278    2.5423   -0.1806 H   0  0  0  0  0  0  0  0  0  0  0  0
   -4.2331    2.3747   -1.6616 H   0  0  0  0  0  0  0  0  0  0  0  0
   -3.5605    3.7111   -0.6452 H   0  0  0  0  0  0  0  0  0  0  0  0
   -4.8706    2.9846    1.1317 H   0  0  0  0  0  0  0  0  0  0  0  0
   -6.3352    2.0667   -0.2587 H   0  0  0  0  0  0  0  0  0  0  0  0
   -3.0818    1.8394    2.0248 H   0  0  0  0  0  0  0  0  0  0  0  0
   -4.1271    0.4437    1.8450 H   0  0  0  0  0  0  0  0  0  0  0  0
    2.0588   -1.0972    1.9632 H   0  0  0  0  0  0  0  0  0  0  0  0
    4.4034   -1.3133    2.6108 H   0  0  0  0  0  0  0  0  0  0  0  0
  1  2  1  0
  2  3  1  0
  3  4  2  0
  4  5  1  0
  5  6  1  0
  4  7  1  0
  7  8  2  0
  8  9  1  0
  9 10  1  0
 10 11  1  0
 11 12  1  0
 12 13  1  0
 13 14  1  0
 14 15  1  0
 15 16  1  0
 16 17  1  0
 17 18  1  0
 18 19  1  0
 19 20  1  0
 20 21  1  0
 21 22  1  0
 21 23  1  0
  8 24  1  0
 24 25  2  0
 25  3  1  0
 17 12  1  0
 23 18  1  0
  1 26  1  0
  1 27  1  0
  1 28  1  0
  6 29  1  0
  6 30  1  0
  6 31  1  0
  7 32  1  0
  9 33  1  0
  9 34  1  0
 10 35  1  0
 10 36  1  0
 12 37  1  1
 13 38  1  0
 13 39  1  0
 14 40  1  0
 14 41  1  0
 15 42  1  0
 15 43  1  0
 16 44  1  0
 16 45  1  0
 17 46  1  6
 19 47  1  0
 19 48  1  0
 20 49  1  0
 20 50  1  0
 21 51  1  1
 22 52  1  0
 23 53  1  0
 23 54  1  0
 24 55  1  0
 25 56  1  0
M  END
$$$$
