
     RDKit          3D

 28 30  0  0  0  0  0  0  0  0999 V2000
   -5.7270   -0.7481    1.0495 O   0  0  0  0  0  0  0  0  0  0  0  0
   -4.3892   -0.3897    0.9001 C   0  0  0  0  0  0  0  0  0  0  0  0
   -3.7169   -0.6234   -0.3074 C   0  0  0  0  0  0  0  0  0  0  0  0
   -2.3735   -0.2603   -0.4440 C   0  0  0  0  0  0  0  0  0  0  0  0
   -1.6836    0.3171    0.6357 C   0  0  0  0  0  0  0  0  0  0  0  0
   -2.3695    0.5796    1.8282 C   0  0  0  0  0  0  0  0  0  0  0  0
   -3.7130    0.2160    1.9644 C   0  0  0  0  0  0  0  0  0  0  0  0
   -0.3236    0.7495    0.5019 N   0  0  0  0  0  0  0  0  0  0  0  0
    0.6609    0.0452    0.0243 C   0  0  0  0  0  0  0  0  0  0  0  0
    0.7067   -1.3825   -0.3214 C   0  0  0  0  0  0  0  0  0  0  0  0
   -0.2349   -2.2100   -0.2062 O   0  0  0  0  0  0  0  0  0  0  0  0
    2.0253   -1.7475   -0.7241 N   0  0  0  0  0  0  0  0  0  0  0  0
    2.7918   -0.5527   -0.5904 C   0  0  0  0  0  0  0  0  0  0  0  0
    4.1559   -0.4095   -0.8403 C   0  0  0  0  0  0  0  0  0  0  0  0
    4.7409    0.8526   -0.6357 C   0  0  0  0  0  0  0  0  0  0  0  0
    3.9601    1.9384   -0.1860 C   0  0  0  0  0  0  0  0  0  0  0  0
    2.5868    1.7727    0.0635 C   0  0  0  0  0  0  0  0  0  0  0  0
    2.0289    0.5125   -0.1483 C   0  0  0  0  0  0  0  0  0  0  0  0
   -6.2448   -1.1864    0.2967 H   0  0  0  0  0  0  0  0  0  0  0  0
   -4.2362   -1.0764   -1.1423 H   0  0  0  0  0  0  0  0  0  0  0  0
   -1.8753   -0.4160   -1.3925 H   0  0  0  0  0  0  0  0  0  0  0  0
   -1.8582    1.0570    2.6547 H   0  0  0  0  0  0  0  0  0  0  0  0
   -4.2302    0.4096    2.8956 H   0  0  0  0  0  0  0  0  0  0  0  0
    2.3683   -2.6970   -0.9907 H   0  0  0  0  0  0  0  0  0  0  0  0
    4.7496   -1.2474   -1.1818 H   0  0  0  0  0  0  0  0  0  0  0  0
    5.7977    0.9916   -0.8231 H   0  0  0  0  0  0  0  0  0  0  0  0
    4.4215    2.9050   -0.0311 H   0  0  0  0  0  0  0  0  0  0  0  0
    1.9815    2.6002    0.4100 H   0  0  0  0  0  0  0  0  0  0  0  0
  1  2  1  0
  2  3  2  0
  3  4  1  0
  4  5  2  0
  5  6  1  0
  6  7  2  0
  5  8  1  0
  8  9  2  0
  9 10  1  0
 10 11  2  0
 10 12  1  0
 12 13  1  0
 13 14  2  0
 14 15  1  0
 15 16  2  0
 16 17  1  0
 17 18  2  0
  7  2  1  0
 18  9  1  0
 18 13  1  0
  1 19  1  0
  3 20  1  0
  4 21  1  0
  6 22  1  0
  7 23  1  0
 12 24  1  0
 14 25  1  0
 15 26  1  0
 16 27  1  0
 17 28  1  0
M  END
$$$$
