
     RDKit          3D

 59 62  0  0  0  0  0  0  0  0999 V2000
   -5.7135   -2.0314    4.0236 C   0  0  0  0  0  0  0  0  0  0  0  0
   -4.4710   -1.5355    3.4111 N   0  0  0  0  0  0  0  0  0  0  0  0
   -3.5863   -0.9967    4.4593 C   0  0  0  0  0  0  0  0  0  0  0  0
   -4.7827   -0.5004    2.4036 C   0  0  0  0  0  0  0  0  0  0  0  0
   -3.5993   -0.2464    1.5142 C   0  0  0  0  0  0  0  0  0  0  0  0
   -3.1033   -1.2103    0.7309 C   0  0  0  0  0  0  0  0  0  0  0  0
   -1.9327   -1.0142   -0.1450 C   0  0  0  0  0  0  0  0  0  0  0  0
   -1.3791   -2.0310   -0.6436 O   0  0  0  0  0  0  0  0  0  0  0  0
   -1.4511    0.2995   -0.4771 N   0  0  0  0  0  0  0  0  0  0  0  0
   -0.1255    0.5505   -0.9800 C   0  0  0  0  0  0  0  0  0  0  0  0
    0.0838    1.5863   -1.9106 C   0  0  0  0  0  0  0  0  0  0  0  0
   -1.0276    2.3238   -2.3544 O   0  0  0  0  0  0  0  0  0  0  0  0
   -1.0088    3.3257   -3.3736 C   0  0  1  0  0  0  0  0  0  0  0  0
   -0.8526    2.7297   -4.7429 C   0  0  0  0  0  0  0  0  0  0  0  0
   -1.6903    3.6464   -5.6134 C   0  0  0  0  0  0  0  0  0  0  0  0
   -2.5992    4.3650   -4.8097 O   0  0  0  0  0  0  0  0  0  0  0  0
   -2.3572    4.0096   -3.4686 C   0  0  0  0  0  0  0  0  0  0  0  0
    1.3879    1.8533   -2.3681 C   0  0  0  0  0  0  0  0  0  0  0  0
    2.4699    1.0964   -1.9119 C   0  0  0  0  0  0  0  0  0  0  0  0
    3.7225    1.3792   -2.3538 N   0  0  0  0  0  0  0  0  0  0  0  0
    4.7938    0.6701   -1.9202 C   0  0  0  0  0  0  0  0  0  0  0  0
    4.6256   -0.3454   -1.0366 N   0  0  0  0  0  0  0  0  0  0  0  0
    3.3971   -0.6765   -0.5525 C   0  0  0  0  0  0  0  0  0  0  0  0
    3.2718   -1.7991    0.3377 N   0  0  0  0  0  0  0  0  0  0  0  0
    4.2942   -2.1859    1.2725 C   0  0  0  0  0  0  0  0  0  0  0  0
    4.3896   -3.5271    1.6766 C   0  0  0  0  0  0  0  0  0  0  0  0
    5.3635   -3.9229    2.6007 C   0  0  0  0  0  0  0  0  0  0  0  0
    5.4733   -5.6077    3.0818 Cl  0  0  0  0  0  0  0  0  0  0  0  0
    6.2428   -2.9751    3.1382 C   0  0  0  0  0  0  0  0  0  0  0  0
    7.1890   -3.3481    4.0360 F   0  0  0  0  0  0  0  0  0  0  0  0
    6.1420   -1.6347    2.7563 C   0  0  0  0  0  0  0  0  0  0  0  0
    5.1702   -1.2379    1.8331 C   0  0  0  0  0  0  0  0  0  0  0  0
    2.2674    0.0521   -0.9860 C   0  0  0  0  0  0  0  0  0  0  0  0
    0.9686   -0.1980   -0.5097 C   0  0  0  0  0  0  0  0  0  0  0  0
   -6.3554   -2.5086    3.2521 H   0  0  0  0  0  0  0  0  0  0  0  0
   -5.4847   -2.8107    4.7824 H   0  0  0  0  0  0  0  0  0  0  0  0
   -6.2814   -1.2064    4.5094 H   0  0  0  0  0  0  0  0  0  0  0  0
   -4.0651   -0.1487    4.9984 H   0  0  0  0  0  0  0  0  0  0  0  0
   -3.3334   -1.7929    5.1923 H   0  0  0  0  0  0  0  0  0  0  0  0
   -2.6286   -0.6489    4.0168 H   0  0  0  0  0  0  0  0  0  0  0  0
   -5.6258   -0.8274    1.7539 H   0  0  0  0  0  0  0  0  0  0  0  0
   -5.0927    0.4510    2.8926 H   0  0  0  0  0  0  0  0  0  0  0  0
   -3.1514    0.7383    1.5368 H   0  0  0  0  0  0  0  0  0  0  0  0
   -3.5501   -2.1976    0.7638 H   0  0  0  0  0  0  0  0  0  0  0  0
   -2.1300    1.0928   -0.4564 H   0  0  0  0  0  0  0  0  0  0  0  0
   -0.2241    4.0895   -3.1741 H   0  0  0  0  0  0  0  0  0  0  0  0
    0.2088    2.7144   -5.0712 H   0  0  0  0  0  0  0  0  0  0  0  0
   -1.2701    1.6982   -4.7699 H   0  0  0  0  0  0  0  0  0  0  0  0
   -2.2475    3.0578   -6.3733 H   0  0  0  0  0  0  0  0  0  0  0  0
   -1.0320    4.3699   -6.1413 H   0  0  0  0  0  0  0  0  0  0  0  0
   -2.3755    4.9191   -2.8309 H   0  0  0  0  0  0  0  0  0  0  0  0
   -3.1672    3.3259   -3.1305 H   0  0  0  0  0  0  0  0  0  0  0  0
    1.5769    2.6516   -3.0717 H   0  0  0  0  0  0  0  0  0  0  0  0
    5.7831    0.9100   -2.2844 H   0  0  0  0  0  0  0  0  0  0  0  0
    2.4571   -2.4413    0.2128 H   0  0  0  0  0  0  0  0  0  0  0  0
    3.7115   -4.2650    1.2660 H   0  0  0  0  0  0  0  0  0  0  0  0
    6.8131   -0.8994    3.1813 H   0  0  0  0  0  0  0  0  0  0  0  0
    5.0923   -0.1903    1.5740 H   0  0  0  0  0  0  0  0  0  0  0  0
    0.7993   -0.9448    0.2529 H   0  0  0  0  0  0  0  0  0  0  0  0
  1  2  1  0
  2  3  1  0
  2  4  1  0
  4  5  1  0
  5  6  2  0
  6  7  1  0
  7  8  2  0
  7  9  1  0
  9 10  1  0
 10 11  2  0
 11 12  1  0
 12 13  1  0
 13 14  1  0
 14 15  1  0
 15 16  1  0
 16 17  1  0
 11 18  1  0
 18 19  2  0
 19 20  1  0
 20 21  2  0
 21 22  1  0
 22 23  2  0
 23 24  1  0
 24 25  1  0
 25 26  2  0
 26 27  1  0
 27 28  1  0
 27 29  2  0
 29 30  1  0
 29 31  1  0
 31 32  2  0
 23 33  1  0
 33 34  2  0
 34 10  1  0
 17 13  1  0
 33 19  1  0
 32 25  1  0
  1 35  1  0
  1 36  1  0
  1 37  1  0
  3 38  1  0
  3 39  1  0
  3 40  1  0
  4 41  1  0
  4 42  1  0
  5 43  1  0
  6 44  1  0
  9 45  1  0
 13 46  1  1
 14 47  1  0
 14 48  1  0
 15 49  1  0
 15 50  1  0
 17 51  1  0
 17 52  1  0
 18 53  1  0
 21 54  1  0
 24 55  1  0
 26 56  1  0
 31 57  1  0
 32 58  1  0
 34 59  1  0
M  END
$$$$
