
     RDKit          3D

 52 53  0  0  0  0  0  0  0  0999 V2000
   -6.6681    2.2425   -0.6846 C   0  0  0  0  0  0  0  0  0  0  0  0
   -5.8934    0.9281   -0.6545 C   0  0  0  0  0  0  0  0  0  0  0  0
   -4.9153    0.8873    0.5246 C   0  0  0  0  0  0  0  0  0  0  0  0
   -4.2325   -0.4138    0.5784 N   0  0  0  0  0  0  0  0  0  0  0  0
   -2.9978   -0.4066   -0.2188 C   0  0  0  0  0  0  0  0  0  0  0  0
   -2.4024   -1.8208   -0.2819 C   0  0  0  0  0  0  0  0  0  0  0  0
   -3.3365   -2.6869   -0.8723 O   0  0  0  0  0  0  0  0  0  0  0  0
   -1.1003   -1.8343   -1.1020 C   0  0  0  0  0  0  0  0  0  0  0  0
   -0.1170   -0.9728   -0.5268 O   0  0  0  0  0  0  0  0  0  0  0  0
    0.6124   -1.2170    0.6490 C   0  0  0  0  0  0  0  0  0  0  0  0
    1.4083   -0.1819    1.1970 C   0  0  0  0  0  0  0  0  0  0  0  0
    2.0968   -0.4096    2.4029 C   0  0  0  0  0  0  0  0  0  0  0  0
    2.0289   -1.6482    3.0403 C   0  0  0  0  0  0  0  0  0  0  0  0
    1.2673   -2.6754    2.4889 C   0  0  0  0  0  0  0  0  0  0  0  0
    0.5626   -2.4658    1.3031 C   0  0  0  0  0  0  0  0  0  0  0  0
    1.5384    1.1532    0.5538 C   0  0  0  0  0  0  0  0  0  0  0  0
    1.6177    2.1748    1.2890 O   0  0  0  0  0  0  0  0  0  0  0  0
    1.6269    1.3461   -0.9417 C   0  0  0  0  0  0  0  0  0  0  0  0
    2.6912    0.4542   -1.6009 C   0  0  0  0  0  0  0  0  0  0  0  0
    4.0700    0.7224   -1.0518 C   0  0  0  0  0  0  0  0  0  0  0  0
    4.6512   -0.1592   -0.1243 C   0  0  0  0  0  0  0  0  0  0  0  0
    5.9158    0.1107    0.4073 C   0  0  0  0  0  0  0  0  0  0  0  0
    6.6084    1.2605    0.0182 C   0  0  0  0  0  0  0  0  0  0  0  0
    6.0368    2.1431   -0.9025 C   0  0  0  0  0  0  0  0  0  0  0  0
    4.7714    1.8778   -1.4353 C   0  0  0  0  0  0  0  0  0  0  0  0
   -5.9693    3.0994   -0.7913 H   0  0  0  0  0  0  0  0  0  0  0  0
   -7.2591    2.3644    0.2481 H   0  0  0  0  0  0  0  0  0  0  0  0
   -7.3654    2.2432   -1.5488 H   0  0  0  0  0  0  0  0  0  0  0  0
   -5.3425    0.8183   -1.6124 H   0  0  0  0  0  0  0  0  0  0  0  0
   -6.6133    0.0855   -0.5671 H   0  0  0  0  0  0  0  0  0  0  0  0
   -4.1882    1.7290    0.4566 H   0  0  0  0  0  0  0  0  0  0  0  0
   -5.4955    1.0298    1.4642 H   0  0  0  0  0  0  0  0  0  0  0  0
   -3.9619   -0.5900    1.5750 H   0  0  0  0  0  0  0  0  0  0  0  0
   -3.2085   -0.0612   -1.2547 H   0  0  0  0  0  0  0  0  0  0  0  0
   -2.2588    0.2895    0.2398 H   0  0  0  0  0  0  0  0  0  0  0  0
   -2.1886   -2.1548    0.7590 H   0  0  0  0  0  0  0  0  0  0  0  0
   -3.0581   -3.6110   -0.6386 H   0  0  0  0  0  0  0  0  0  0  0  0
   -1.3171   -1.4755   -2.1309 H   0  0  0  0  0  0  0  0  0  0  0  0
   -0.7018   -2.8659   -1.2022 H   0  0  0  0  0  0  0  0  0  0  0  0
    2.7088    0.3689    2.8422 H   0  0  0  0  0  0  0  0  0  0  0  0
    2.5728   -1.8131    3.9614 H   0  0  0  0  0  0  0  0  0  0  0  0
    1.2196   -3.6370    2.9835 H   0  0  0  0  0  0  0  0  0  0  0  0
   -0.0207   -3.2850    0.9088 H   0  0  0  0  0  0  0  0  0  0  0  0
    1.8716    2.4090   -1.1606 H   0  0  0  0  0  0  0  0  0  0  0  0
    0.6380    1.1611   -1.4077 H   0  0  0  0  0  0  0  0  0  0  0  0
    2.6931    0.6523   -2.6947 H   0  0  0  0  0  0  0  0  0  0  0  0
    2.4233   -0.6169   -1.4774 H   0  0  0  0  0  0  0  0  0  0  0  0
    4.1258   -1.0528    0.1891 H   0  0  0  0  0  0  0  0  0  0  0  0
    6.3582   -0.5710    1.1221 H   0  0  0  0  0  0  0  0  0  0  0  0
    7.5871    1.4682    0.4310 H   0  0  0  0  0  0  0  0  0  0  0  0
    6.5731    3.0344   -1.2013 H   0  0  0  0  0  0  0  0  0  0  0  0
    4.3365    2.5726   -2.1431 H   0  0  0  0  0  0  0  0  0  0  0  0
  1  2  1  0
  2  3  1  0
  3  4  1  0
  4  5  1  0
  5  6  1  0
  6  7  1  0
  6  8  1  0
  8  9  1  0
  9 10  1  0
 10 11  2  0
 11 12  1  0
 12 13  2  0
 13 14  1  0
 14 15  2  0
 11 16  1  0
 16 17  2  0
 16 18  1  0
 18 19  1  0
 19 20  1  0
 20 21  2  0
 21 22  1  0
 22 23  2  0
 23 24  1  0
 24 25  2  0
 15 10  1  0
 25 20  1  0
  1 26  1  0
  1 27  1  0
  1 28  1  0
  2 29  1  0
  2 30  1  0
  3 31  1  0
  3 32  1  0
  4 33  1  0
  5 34  1  0
  5 35  1  0
  6 36  1  0
  7 37  1  0
  8 38  1  0
  8 39  1  0
 12 40  1  0
 13 41  1  0
 14 42  1  0
 15 43  1  0
 18 44  1  0
 18 45  1  0
 19 46  1  0
 19 47  1  0
 21 48  1  0
 22 49  1  0
 23 50  1  0
 24 51  1  0
 25 52  1  0
M  END
$$$$
