
     RDKit          3D

 46 49  0  0  0  0  0  0  0  0999 V2000
    4.3855    0.3028   -2.2580 N   0  0  0  0  0  0  0  0  0  0  0  0
    3.1129    0.4470   -1.6372 C   0  0  0  0  0  0  0  0  0  0  0  0
    2.0479    0.5812   -2.2956 O   0  0  0  0  0  0  0  0  0  0  0  0
    3.1924    0.4780   -0.1313 C   0  0  0  0  0  0  0  0  0  0  0  0
    2.4808   -0.7219    0.5188 C   0  0  0  0  0  0  0  0  0  0  0  0
    0.9825   -0.6104    0.3997 C   0  0  0  0  0  0  0  0  0  0  0  0
    0.2742    0.2778    1.2222 C   0  0  0  0  0  0  0  0  0  0  0  0
   -1.1127    0.3999    1.1020 C   0  0  0  0  0  0  0  0  0  0  0  0
   -1.8181   -0.3600    0.1514 C   0  0  0  0  0  0  0  0  0  0  0  0
   -1.1026   -1.2495   -0.6713 C   0  0  0  0  0  0  0  0  0  0  0  0
    0.2842   -1.3717   -0.5493 C   0  0  0  0  0  0  0  0  0  0  0  0
   -3.2525   -0.2346    0.0294 N   0  0  0  0  0  0  0  0  0  0  0  0
   -3.8978   -0.3737   -1.2849 C   0  0  0  0  0  0  0  0  0  0  0  0
   -5.1474    0.5095   -1.3760 C   0  0  0  0  0  0  0  0  0  0  0  0
   -6.0115    0.3522   -0.1999 N   0  0  0  0  0  0  0  0  0  0  0  0
   -5.5495   -0.4112    0.9661 C   0  0  0  0  0  0  0  0  0  0  0  0
   -4.0741   -0.1089    1.2446 C   0  0  0  0  0  0  0  0  0  0  0  0
   -7.3436    0.8865   -0.2558 C   0  0  0  0  0  0  0  0  0  0  0  0
   -8.1577    0.7032    0.6880 O   0  0  0  0  0  0  0  0  0  0  0  0
    4.6812    0.3825    0.0392 C   0  0  0  0  0  0  0  0  0  0  0  0
    5.4231    0.4171    1.2225 C   0  0  0  0  0  0  0  0  0  0  0  0
    6.8227    0.3274    1.1402 C   0  0  0  0  0  0  0  0  0  0  0  0
    7.4567    0.2144   -0.1132 C   0  0  0  0  0  0  0  0  0  0  0  0
    6.6957    0.1931   -1.2934 C   0  0  0  0  0  0  0  0  0  0  0  0
    5.3082    0.2784   -1.1863 C   0  0  0  0  0  0  0  0  0  0  0  0
    4.5957    0.2833   -3.2806 H   0  0  0  0  0  0  0  0  0  0  0  0
    2.8214    1.4478    0.2658 H   0  0  0  0  0  0  0  0  0  0  0  0
    2.7454   -0.7649    1.5980 H   0  0  0  0  0  0  0  0  0  0  0  0
    2.8395   -1.6719    0.0626 H   0  0  0  0  0  0  0  0  0  0  0  0
    0.7982    0.8793    1.9549 H   0  0  0  0  0  0  0  0  0  0  0  0
   -1.6304    1.1013    1.7423 H   0  0  0  0  0  0  0  0  0  0  0  0
   -1.6172   -1.8619   -1.4002 H   0  0  0  0  0  0  0  0  0  0  0  0
    0.8133   -2.0598   -1.1969 H   0  0  0  0  0  0  0  0  0  0  0  0
   -3.1991   -0.0723   -2.0959 H   0  0  0  0  0  0  0  0  0  0  0  0
   -4.1806   -1.4372   -1.4419 H   0  0  0  0  0  0  0  0  0  0  0  0
   -4.8409    1.5747   -1.4595 H   0  0  0  0  0  0  0  0  0  0  0  0
   -5.7084    0.2329   -2.2954 H   0  0  0  0  0  0  0  0  0  0  0  0
   -6.1372   -0.1518    1.8730 H   0  0  0  0  0  0  0  0  0  0  0  0
   -5.6788   -1.4969    0.7662 H   0  0  0  0  0  0  0  0  0  0  0  0
   -3.7089   -0.8164    2.0210 H   0  0  0  0  0  0  0  0  0  0  0  0
   -3.9884    0.9261    1.6395 H   0  0  0  0  0  0  0  0  0  0  0  0
   -7.6637    1.4531   -1.1212 H   0  0  0  0  0  0  0  0  0  0  0  0
    4.9322    0.5116    2.1823 H   0  0  0  0  0  0  0  0  0  0  0  0
    7.4172    0.3486    2.0442 H   0  0  0  0  0  0  0  0  0  0  0  0
    8.5356    0.1490   -0.1672 H   0  0  0  0  0  0  0  0  0  0  0  0
    7.1749    0.1164   -2.2607 H   0  0  0  0  0  0  0  0  0  0  0  0
  1  2  1  0
  2  3  2  0
  2  4  1  0
  4  5  1  0
  5  6  1  0
  6  7  2  0
  7  8  1  0
  8  9  2  0
  9 10  1  0
 10 11  2  0
  9 12  1  0
 12 13  1  0
 13 14  1  0
 14 15  1  0
 15 16  1  0
 16 17  1  0
 15 18  1  0
 18 19  2  0
  4 20  1  0
 20 21  2  0
 21 22  1  0
 22 23  2  0
 23 24  1  0
 24 25  2  0
 25  1  1  0
 11  6  1  0
 17 12  1  0
 25 20  1  0
  1 26  1  0
  4 27  1  0
  5 28  1  0
  5 29  1  0
  7 30  1  0
  8 31  1  0
 10 32  1  0
 11 33  1  0
 13 34  1  0
 13 35  1  0
 14 36  1  0
 14 37  1  0
 16 38  1  0
 16 39  1  0
 17 40  1  0
 17 41  1  0
 18 42  1  0
 21 43  1  0
 22 44  1  0
 23 45  1  0
 24 46  1  0
M  END
$$$$
