
     RDKit          3D

 30 29  0  0  0  0  0  0  0  0999 V2000
   -3.9453   -1.0776   -0.9649 N   0  0  0  0  0  0  0  0  0  0  0  0
   -3.3512    0.1375   -0.4020 C   0  0  1  0  0  0  0  0  0  0  0  0
   -2.0092   -0.1734    0.2922 C   0  0  0  0  0  0  0  0  0  0  0  0
   -0.9727   -0.8184   -0.6412 C   0  0  0  0  0  0  0  0  0  0  0  0
    0.2898   -1.1171    0.1094 C   0  0  0  0  0  0  0  0  0  0  0  0
    0.4767   -2.2748    0.5730 O   0  0  0  0  0  0  0  0  0  0  0  0
    1.2544   -0.0789    0.3356 N   0  0  0  0  0  0  0  0  0  0  0  0
    2.5288   -0.3296    1.0204 C   0  0  1  0  0  0  0  0  0  0  0  0
    3.5259   -1.0334    0.0843 C   0  0  0  0  0  0  0  0  0  0  0  0
    3.8069   -0.1098   -1.4653 S   0  0  0  0  0  0  0  0  0  0  0  0
    3.1074    0.9417    1.5855 C   0  0  0  0  0  0  0  0  0  0  0  0
    3.7314    0.9167    2.8290 O   0  0  0  0  0  0  0  0  0  0  0  0
    3.0697    2.0171    0.9282 O   0  0  0  0  0  0  0  0  0  0  0  0
   -3.1803    1.1899   -1.4646 C   0  0  0  0  0  0  0  0  0  0  0  0
   -3.2061    2.5349   -1.1094 O   0  0  0  0  0  0  0  0  0  0  0  0
   -2.9735    0.8628   -2.6648 O   0  0  0  0  0  0  0  0  0  0  0  0
   -4.1117   -1.7546   -0.1848 H   0  0  0  0  0  0  0  0  0  0  0  0
   -4.8906   -0.8363   -1.3432 H   0  0  0  0  0  0  0  0  0  0  0  0
   -4.0432    0.5464    0.3692 H   0  0  0  0  0  0  0  0  0  0  0  0
   -1.5922    0.7689    0.7126 H   0  0  0  0  0  0  0  0  0  0  0  0
   -2.2026   -0.8582    1.1475 H   0  0  0  0  0  0  0  0  0  0  0  0
   -1.3773   -1.7615   -1.0683 H   0  0  0  0  0  0  0  0  0  0  0  0
   -0.7347   -0.1346   -1.4832 H   0  0  0  0  0  0  0  0  0  0  0  0
    1.0489    0.8718   -0.0479 H   0  0  0  0  0  0  0  0  0  0  0  0
    2.3387   -1.0046    1.8840 H   0  0  0  0  0  0  0  0  0  0  0  0
    3.1311   -2.0363   -0.1821 H   0  0  0  0  0  0  0  0  0  0  0  0
    4.4967   -1.1850    0.6037 H   0  0  0  0  0  0  0  0  0  0  0  0
    4.7177    0.7821   -0.8684 H   0  0  0  0  0  0  0  0  0  0  0  0
    4.1422    1.7555    3.2213 H   0  0  0  0  0  0  0  0  0  0  0  0
   -3.0759    3.2588   -1.8060 H   0  0  0  0  0  0  0  0  0  0  0  0
  1  2  1  0
  2  3  1  0
  3  4  1  0
  4  5  1  0
  5  6  2  0
  5  7  1  0
  7  8  1  0
  8  9  1  0
  9 10  1  0
  8 11  1  0
 11 12  1  0
 11 13  2  0
  2 14  1  0
 14 15  1  0
 14 16  2  0
  1 17  1  0
  1 18  1  0
  2 19  1  1
  3 20  1  0
  3 21  1  0
  4 22  1  0
  4 23  1  0
  7 24  1  0
  8 25  1  1
  9 26  1  0
  9 27  1  0
 10 28  1  0
 12 29  1  0
 15 30  1  0
M  END
$$$$
