
     RDKit          3D

 53 56  0  0  0  0  0  0  0  0999 V2000
   -0.8666   -0.5421    0.4987 C   0  0  2  0  0  0  0  0  0  0  0  0
   -0.7063    0.8724   -0.1175 C   0  0  0  0  0  0  0  0  0  0  0  0
    0.4208    1.5870    0.5082 N   0  0  0  0  0  0  0  0  0  0  0  0
    0.3864    3.0259    0.2019 C   0  0  0  0  0  0  0  0  0  0  0  0
    1.7462    0.9184    0.3261 C   0  0  2  0  0  0  0  0  0  0  0  0
    2.7648    1.6460   -0.6222 C   0  0  0  0  0  0  0  0  0  0  0  0
    4.0238    0.8249   -0.6917 C   0  0  0  0  0  0  0  0  0  0  0  0
    5.3352    1.1470   -1.0280 C   0  0  0  0  0  0  0  0  0  0  0  0
    6.1224    0.0405   -0.9271 N   0  0  0  0  0  0  0  0  0  0  0  0
    5.3079   -0.9614   -0.5385 C   0  0  0  0  0  0  0  0  0  0  0  0
    5.6086   -2.3024   -0.3032 C   0  0  0  0  0  0  0  0  0  0  0  0
    4.5429   -3.1546    0.0707 C   0  0  0  0  0  0  0  0  0  0  0  0
    3.2192   -2.6531    0.1958 C   0  0  0  0  0  0  0  0  0  0  0  0
    2.9623   -1.2793   -0.0219 C   0  0  0  0  0  0  0  0  0  0  0  0
    4.0410   -0.5026   -0.4005 C   0  0  0  0  0  0  0  0  0  0  0  0
    1.6039   -0.5952   -0.0853 C   0  0  1  0  0  0  0  0  0  0  0  0
    0.4952   -1.2401    0.7541 C   0  0  0  0  0  0  0  0  0  0  0  0
   -1.6791   -1.3822   -0.3867 N   0  0  0  0  0  0  0  0  0  0  0  0
   -2.9567   -1.2564   -0.6051 C   0  0  0  0  0  0  0  0  0  0  0  0
   -3.5794   -2.1075   -1.5132 O   0  0  0  0  0  0  0  0  0  0  0  0
   -3.7380   -0.2515    0.0610 N   0  0  0  0  0  0  0  0  0  0  0  0
   -4.3832    0.7790   -0.7655 C   0  0  0  0  0  0  0  0  0  0  0  0
   -5.8177    0.3952   -1.1199 C   0  0  0  0  0  0  0  0  0  0  0  0
   -4.1907   -0.5150    1.4359 C   0  0  0  0  0  0  0  0  0  0  0  0
   -4.0830    0.7283    2.3165 C   0  0  0  0  0  0  0  0  0  0  0  0
   -1.3718   -0.4493    1.4832 H   0  0  0  0  0  0  0  0  0  0  0  0
   -0.5510    0.8083   -1.2183 H   0  0  0  0  0  0  0  0  0  0  0  0
   -1.6510    1.4326    0.0503 H   0  0  0  0  0  0  0  0  0  0  0  0
    0.5149    3.2062   -0.8873 H   0  0  0  0  0  0  0  0  0  0  0  0
    1.1727    3.5593    0.7761 H   0  0  0  0  0  0  0  0  0  0  0  0
   -0.5850    3.4612    0.5204 H   0  0  0  0  0  0  0  0  0  0  0  0
    2.2182    0.9263    1.3355 H   0  0  0  0  0  0  0  0  0  0  0  0
    2.3373    1.7412   -1.6429 H   0  0  0  0  0  0  0  0  0  0  0  0
    3.0283    2.6509   -0.2324 H   0  0  0  0  0  0  0  0  0  0  0  0
    5.6937    2.1250   -1.3205 H   0  0  0  0  0  0  0  0  0  0  0  0
    7.1475   -0.0178   -1.1167 H   0  0  0  0  0  0  0  0  0  0  0  0
    6.6169   -2.6799   -0.4126 H   0  0  0  0  0  0  0  0  0  0  0  0
    4.7357   -4.2049    0.2465 H   0  0  0  0  0  0  0  0  0  0  0  0
    2.4221   -3.3377    0.4468 H   0  0  0  0  0  0  0  0  0  0  0  0
    1.2924   -0.6496   -1.1529 H   0  0  0  0  0  0  0  0  0  0  0  0
    0.7630   -1.1577    1.8310 H   0  0  0  0  0  0  0  0  0  0  0  0
    0.4072   -2.3218    0.5186 H   0  0  0  0  0  0  0  0  0  0  0  0
   -3.0559   -2.8234   -2.0033 H   0  0  0  0  0  0  0  0  0  0  0  0
   -3.8073    0.9259   -1.7061 H   0  0  0  0  0  0  0  0  0  0  0  0
   -4.3791    1.7545   -0.2366 H   0  0  0  0  0  0  0  0  0  0  0  0
   -5.8433   -0.6009   -1.6089 H   0  0  0  0  0  0  0  0  0  0  0  0
   -6.2394    1.1461   -1.8207 H   0  0  0  0  0  0  0  0  0  0  0  0
   -6.4506    0.3750   -0.2085 H   0  0  0  0  0  0  0  0  0  0  0  0
   -3.5746   -1.3192    1.8954 H   0  0  0  0  0  0  0  0  0  0  0  0
   -5.2404   -0.8768    1.4258 H   0  0  0  0  0  0  0  0  0  0  0  0
   -4.2557    0.4473    3.3767 H   0  0  0  0  0  0  0  0  0  0  0  0
   -4.8511    1.4762    2.0298 H   0  0  0  0  0  0  0  0  0  0  0  0
   -3.0736    1.1818    2.2284 H   0  0  0  0  0  0  0  0  0  0  0  0
  1  2  1  0
  2  3  1  0
  3  4  1  0
  3  5  1  0
  5  6  1  0
  6  7  1  0
  7  8  2  0
  8  9  1  0
  9 10  1  0
 10 11  2  0
 11 12  1  0
 12 13  2  0
 13 14  1  0
 14 15  2  0
 14 16  1  0
 16 17  1  0
  1 18  1  0
 18 19  2  3
 19 20  1  0
 19 21  1  0
 21 22  1  0
 22 23  1  0
 21 24  1  0
 24 25  1  0
 17  1  1  0
 16  5  1  0
 15  7  1  0
 15 10  1  0
  1 26  1  1
  2 27  1  0
  2 28  1  0
  4 29  1  0
  4 30  1  0
  4 31  1  0
  5 32  1  1
  6 33  1  0
  6 34  1  0
  8 35  1  0
  9 36  1  0
 11 37  1  0
 12 38  1  0
 13 39  1  0
 16 40  1  6
 17 41  1  0
 17 42  1  0
 20 43  1  0
 22 44  1  0
 22 45  1  0
 23 46  1  0
 23 47  1  0
 23 48  1  0
 24 49  1  0
 24 50  1  0
 25 51  1  0
 25 52  1  0
 25 53  1  0
M  END
$$$$
