
     RDKit          3D

 16 15  0  0  0  0  0  0  0  0999 V2000
   -1.3312    0.6602   -0.4522 C   0  0  0  0  0  0  0  0  0  0  0  0
   -0.0860   -0.0877    0.0699 C   0  0  0  0  0  0  0  0  0  0  0  0
    0.1442   -1.3595   -0.7623 C   0  0  0  0  0  0  0  0  0  0  0  0
   -0.2857   -0.4653    1.4757 N   0  0  0  0  0  0  0  0  0  0  0  0
    1.1398    0.7923   -0.0449 C   0  0  0  0  0  0  0  0  0  0  0  0
    2.0967    0.7946    0.9672 O   0  0  0  0  0  0  0  0  0  0  0  0
    1.3336    1.4843   -1.0817 O   0  0  0  0  0  0  0  0  0  0  0  0
   -1.2201    0.9135   -1.5288 H   0  0  0  0  0  0  0  0  0  0  0  0
   -2.2397    0.0306   -0.3379 H   0  0  0  0  0  0  0  0  0  0  0  0
   -1.4849    1.6021    0.1172 H   0  0  0  0  0  0  0  0  0  0  0  0
    0.3204   -1.1057   -1.8303 H   0  0  0  0  0  0  0  0  0  0  0  0
   -0.7405   -2.0295   -0.7038 H   0  0  0  0  0  0  0  0  0  0  0  0
    1.0279   -1.9157   -0.3809 H   0  0  0  0  0  0  0  0  0  0  0  0
   -0.4717    0.3948    2.0429 H   0  0  0  0  0  0  0  0  0  0  0  0
   -1.1350   -1.0715    1.5583 H   0  0  0  0  0  0  0  0  0  0  0  0
    2.9321    1.3625    0.8916 H   0  0  0  0  0  0  0  0  0  0  0  0
  1  2  1  0
  2  3  1  0
  2  4  1  0
  2  5  1  0
  5  6  1  0
  5  7  2  0
  1  8  1  0
  1  9  1  0
  1 10  1  0
  3 11  1  0
  3 12  1  0
  3 13  1  0
  4 14  1  0
  4 15  1  0
  6 16  1  0
M  END
$$$$
