
     RDKit          3D

 65 69  0  0  0  0  0  0  0  0999 V2000
   -9.5337    2.8230   -0.5154 C   0  0  0  0  0  0  0  0  0  0  0  0
   -9.0937    1.3960   -1.4806 S   0  0  0  0  0  6  0  0  0  0  0  0
   -8.3920    1.8330   -2.7359 O   0  0  0  0  0  0  0  0  0  0  0  0
  -10.3386    0.6443   -1.8607 O   0  0  0  0  0  0  0  0  0  0  0  0
   -8.0307    0.3578   -0.5369 C   0  0  0  0  0  0  0  0  0  0  0  0
   -6.6492    0.5946   -0.5247 C   0  0  0  0  0  0  0  0  0  0  0  0
   -5.7949   -0.2222    0.2344 C   0  0  0  0  0  0  0  0  0  0  0  0
   -4.3044    0.0049    0.2138 C   0  0  0  0  0  0  0  0  0  0  0  0
   -3.6032   -0.9183   -0.8001 C   0  0  2  0  0  0  0  0  0  0  0  0
   -2.1487   -0.7866   -0.6711 N   0  0  0  0  0  0  0  0  0  0  0  0
   -1.4150   -1.4161    0.3900 C   0  0  0  0  0  0  0  0  0  0  0  0
   -1.9849   -2.2433    1.1526 O   0  0  0  0  0  0  0  0  0  0  0  0
    0.0161   -1.1060    0.5916 C   0  0  0  0  0  0  0  0  0  0  0  0
    0.9808   -2.1384    0.5825 C   0  0  0  0  0  0  0  0  0  0  0  0
    0.4821   -3.8042    0.2466 Cl  0  0  0  0  0  0  0  0  0  0  0  0
    2.3477   -1.8379    0.7895 C   0  0  0  0  0  0  0  0  0  0  0  0
    2.7445   -0.4867    0.9495 C   0  0  0  0  0  0  0  0  0  0  0  0
    4.1890   -0.0992    1.1704 C   0  0  0  0  0  0  0  0  0  0  0  0
    5.0881   -1.2127    0.8551 N   0  0  0  0  0  0  0  0  0  0  0  0
    4.7131   -2.5295    1.3631 C   0  0  0  0  0  0  0  0  0  0  0  0
    3.3847   -2.9458    0.7364 C   0  0  0  0  0  0  0  0  0  0  0  0
    6.1248   -1.0766   -0.1361 C   0  0  0  0  0  0  0  0  0  0  0  0
    6.2965   -1.9971   -0.9815 O   0  0  0  0  0  0  0  0  0  0  0  0
    6.9988    0.1188   -0.1815 C   0  0  0  0  0  0  0  0  0  0  0  0
    7.2637    0.8665    0.9979 C   0  0  0  0  0  0  0  0  0  0  0  0
    8.0996    1.9971    0.9609 C   0  0  0  0  0  0  0  0  0  0  0  0
    8.6609    2.3486   -0.2622 C   0  0  0  0  0  0  0  0  0  0  0  0
    9.5034    3.3796   -0.6054 C   0  0  0  0  0  0  0  0  0  0  0  0
    9.7245    3.2103   -1.9682 C   0  0  0  0  0  0  0  0  0  0  0  0
    9.0656    2.1556   -2.4149 O   0  0  0  0  0  0  0  0  0  0  0  0
    8.4240    1.6303   -1.4003 C   0  0  0  0  0  0  0  0  0  0  0  0
    7.6025    0.5063   -1.4011 C   0  0  0  0  0  0  0  0  0  0  0  0
    1.7767    0.5231    0.9711 C   0  0  0  0  0  0  0  0  0  0  0  0
    0.4257    0.2255    0.7978 C   0  0  0  0  0  0  0  0  0  0  0  0
   -0.7324    1.5505    0.9002 Cl  0  0  0  0  0  0  0  0  0  0  0  0
   -4.0289   -0.6027   -2.2095 C   0  0  0  0  0  0  0  0  0  0  0  0
   -4.7291   -1.5511   -2.9485 O   0  0  0  0  0  0  0  0  0  0  0  0
   -3.7702    0.5220   -2.7175 O   0  0  0  0  0  0  0  0  0  0  0  0
   -6.3361   -1.2851    0.9748 C   0  0  0  0  0  0  0  0  0  0  0  0
   -7.7143   -1.5149    0.9715 C   0  0  0  0  0  0  0  0  0  0  0  0
   -8.5608   -0.6947    0.2214 C   0  0  0  0  0  0  0  0  0  0  0  0
  -10.2037    3.4801   -1.1071 H   0  0  0  0  0  0  0  0  0  0  0  0
   -8.6156    3.3827   -0.2417 H   0  0  0  0  0  0  0  0  0  0  0  0
  -10.0562    2.4990    0.4083 H   0  0  0  0  0  0  0  0  0  0  0  0
   -6.2389    1.4110   -1.1064 H   0  0  0  0  0  0  0  0  0  0  0  0
   -4.0763    1.0685   -0.0200 H   0  0  0  0  0  0  0  0  0  0  0  0
   -3.8994   -0.1872    1.2313 H   0  0  0  0  0  0  0  0  0  0  0  0
   -3.8866   -1.9736   -0.5881 H   0  0  0  0  0  0  0  0  0  0  0  0
   -1.6232   -0.1821   -1.3436 H   0  0  0  0  0  0  0  0  0  0  0  0
    4.3241    0.1846    2.2359 H   0  0  0  0  0  0  0  0  0  0  0  0
    4.4272    0.7869    0.5419 H   0  0  0  0  0  0  0  0  0  0  0  0
    4.6026   -2.4783    2.4686 H   0  0  0  0  0  0  0  0  0  0  0  0
    5.4959   -3.2866    1.1382 H   0  0  0  0  0  0  0  0  0  0  0  0
    3.0210   -3.8446    1.2787 H   0  0  0  0  0  0  0  0  0  0  0  0
    3.5548   -3.2217   -0.3267 H   0  0  0  0  0  0  0  0  0  0  0  0
    6.8381    0.5666    1.9466 H   0  0  0  0  0  0  0  0  0  0  0  0
    8.3037    2.5697    1.8566 H   0  0  0  0  0  0  0  0  0  0  0  0
    9.9059    4.1502    0.0387 H   0  0  0  0  0  0  0  0  0  0  0  0
   10.3454    3.8440   -2.5871 H   0  0  0  0  0  0  0  0  0  0  0  0
    7.4301   -0.0411   -2.3193 H   0  0  0  0  0  0  0  0  0  0  0  0
    2.0763    1.5521    1.1317 H   0  0  0  0  0  0  0  0  0  0  0  0
   -5.0331   -1.3518   -3.8940 H   0  0  0  0  0  0  0  0  0  0  0  0
   -5.6903   -1.9341    1.5533 H   0  0  0  0  0  0  0  0  0  0  0  0
   -8.1268   -2.3315    1.5499 H   0  0  0  0  0  0  0  0  0  0  0  0
   -9.6269   -0.8816    0.2317 H   0  0  0  0  0  0  0  0  0  0  0  0
  1  2  1  0
  2  3  2  0
  2  4  2  0
  2  5  1  0
  5  6  2  0
  6  7  1  0
  7  8  1  0
  8  9  1  0
  9 10  1  0
 10 11  1  0
 11 12  2  0
 11 13  1  0
 13 14  2  0
 14 15  1  0
 14 16  1  0
 16 17  2  0
 17 18  1  0
 18 19  1  0
 19 20  1  0
 20 21  1  0
 19 22  1  0
 22 23  2  0
 22 24  1  0
 24 25  2  0
 25 26  1  0
 26 27  2  0
 27 28  1  0
 28 29  2  0
 29 30  1  0
 30 31  1  0
 31 32  2  0
 17 33  1  0
 33 34  2  0
 34 35  1  0
  9 36  1  0
 36 37  1  0
 36 38  2  0
  7 39  2  0
 39 40  1  0
 40 41  2  0
 41  5  1  0
 34 13  1  0
 21 16  1  0
 32 24  1  0
 31 27  1  0
  1 42  1  0
  1 43  1  0
  1 44  1  0
  6 45  1  0
  8 46  1  0
  8 47  1  0
  9 48  1  1
 10 49  1  0
 18 50  1  0
 18 51  1  0
 20 52  1  0
 20 53  1  0
 21 54  1  0
 21 55  1  0
 25 56  1  0
 26 57  1  0
 28 58  1  0
 29 59  1  0
 32 60  1  0
 33 61  1  0
 37 62  1  0
 39 63  1  0
 40 64  1  0
 41 65  1  0
M  END
$$$$
