
     RDKit          3D

 30 31  0  0  0  0  0  0  0  0999 V2000
   -2.4317   -2.7730    0.2500 O   0  0  0  0  0  0  0  0  0  0  0  0
   -2.9488   -1.9135   -0.7294 C   0  0  0  0  0  0  0  0  0  0  0  0
   -2.7291   -0.4567   -0.3338 C   0  0  0  0  0  0  0  0  0  0  0  0
   -1.3338   -0.2076   -0.1858 O   0  0  0  0  0  0  0  0  0  0  0  0
   -0.7735    1.0341    0.1562 C   0  0  0  0  0  0  0  0  0  0  0  0
    0.6301    1.1443    0.2654 C   0  0  0  0  0  0  0  0  0  0  0  0
    1.2029    2.3747    0.6316 C   0  0  0  0  0  0  0  0  0  0  0  0
    0.3952    3.4854    0.8811 C   0  0  0  0  0  0  0  0  0  0  0  0
   -0.9908    3.3813    0.7678 C   0  0  0  0  0  0  0  0  0  0  0  0
   -1.5758    2.1655    0.4075 C   0  0  0  0  0  0  0  0  0  0  0  0
    1.5080   -0.0183   -0.0090 C   0  0  0  0  0  0  0  0  0  0  0  0
    2.4602   -0.4413    0.9389 C   0  0  0  0  0  0  0  0  0  0  0  0
    2.5700    0.1891    2.1363 F   0  0  0  0  0  0  0  0  0  0  0  0
    3.2866   -1.5375    0.6650 C   0  0  0  0  0  0  0  0  0  0  0  0
    4.1972   -1.9452    1.5838 F   0  0  0  0  0  0  0  0  0  0  0  0
    3.1722   -2.2163   -0.5520 C   0  0  0  0  0  0  0  0  0  0  0  0
    3.9729   -3.2783   -0.8164 F   0  0  0  0  0  0  0  0  0  0  0  0
    2.2317   -1.8010   -1.4978 C   0  0  0  0  0  0  0  0  0  0  0  0
    1.4040   -0.7073   -1.2303 C   0  0  0  0  0  0  0  0  0  0  0  0
   -3.0743   -2.7604    1.0068 H   0  0  0  0  0  0  0  0  0  0  0  0
   -4.0354   -2.1049   -0.8803 H   0  0  0  0  0  0  0  0  0  0  0  0
   -2.4300   -2.1134   -1.6910 H   0  0  0  0  0  0  0  0  0  0  0  0
   -3.1442    0.1992   -1.1294 H   0  0  0  0  0  0  0  0  0  0  0  0
   -3.2540   -0.2501    0.6241 H   0  0  0  0  0  0  0  0  0  0  0  0
    2.2783    2.4778    0.7103 H   0  0  0  0  0  0  0  0  0  0  0  0
    0.8453    4.4298    1.1589 H   0  0  0  0  0  0  0  0  0  0  0  0
   -1.6143    4.2448    0.9607 H   0  0  0  0  0  0  0  0  0  0  0  0
   -2.6532    2.1146    0.3322 H   0  0  0  0  0  0  0  0  0  0  0  0
    2.1450   -2.3247   -2.4412 H   0  0  0  0  0  0  0  0  0  0  0  0
    0.6894   -0.3910   -1.9804 H   0  0  0  0  0  0  0  0  0  0  0  0
  1  2  1  0
  2  3  1  0
  3  4  1  0
  4  5  1  0
  5  6  2  0
  6  7  1  0
  7  8  2  0
  8  9  1  0
  9 10  2  0
  6 11  1  0
 11 12  2  0
 12 13  1  0
 12 14  1  0
 14 15  1  0
 14 16  2  0
 16 17  1  0
 16 18  1  0
 18 19  2  0
 10  5  1  0
 19 11  1  0
  1 20  1  0
  2 21  1  0
  2 22  1  0
  3 23  1  0
  3 24  1  0
  7 25  1  0
  8 26  1  0
  9 27  1  0
 10 28  1  0
 18 29  1  0
 19 30  1  0
M  END
$$$$
