
     RDKit          3D

 40 42  0  0  0  0  0  0  0  0999 V2000
   -3.1639   -4.5964    0.3034 C   0  0  0  0  0  0  0  0  0  0  0  0
   -2.3888   -3.3330    0.0733 C   0  0  0  0  0  0  0  0  0  0  0  0
   -3.0317   -2.0886    0.1331 C   0  0  0  0  0  0  0  0  0  0  0  0
   -2.3177   -0.9135   -0.1166 C   0  0  0  0  0  0  0  0  0  0  0  0
   -0.9513   -0.9623   -0.4453 C   0  0  0  0  0  0  0  0  0  0  0  0
   -0.3154   -2.2148   -0.5194 C   0  0  0  0  0  0  0  0  0  0  0  0
   -1.0304   -3.3896   -0.2691 C   0  0  0  0  0  0  0  0  0  0  0  0
   -0.2220    0.2612   -0.6929 N   0  0  0  0  0  0  0  0  0  0  0  0
    0.8080    0.3270   -1.7414 C   0  0  0  0  0  0  0  0  0  0  0  0
    2.1718    0.3942   -1.1263 C   0  0  0  0  0  0  0  0  0  0  0  0
    2.8808   -0.6523   -0.8839 N   0  0  0  0  0  0  0  0  0  0  0  0
    4.1188   -0.2619   -0.2196 C   0  0  0  0  0  0  0  0  0  0  0  0
    4.0216    1.2631   -0.0532 C   0  0  0  0  0  0  0  0  0  0  0  0
    2.7538    1.5978   -0.6687 N   0  0  0  0  0  0  0  0  0  0  0  0
   -0.4477    1.4078    0.1531 C   0  0  0  0  0  0  0  0  0  0  0  0
   -0.4056    1.2690    1.5509 C   0  0  0  0  0  0  0  0  0  0  0  0
   -0.6102    2.3766    2.3806 C   0  0  0  0  0  0  0  0  0  0  0  0
   -0.5596    2.2182    3.7636 O   0  0  0  0  0  0  0  0  0  0  0  0
   -0.8623    3.6332    1.8145 C   0  0  0  0  0  0  0  0  0  0  0  0
   -0.9109    3.7784    0.4259 C   0  0  0  0  0  0  0  0  0  0  0  0
   -0.7057    2.6722   -0.4034 C   0  0  0  0  0  0  0  0  0  0  0  0
   -3.5866   -4.9506   -0.6599 H   0  0  0  0  0  0  0  0  0  0  0  0
   -2.5075   -5.3878    0.7240 H   0  0  0  0  0  0  0  0  0  0  0  0
   -3.9937   -4.4219    1.0211 H   0  0  0  0  0  0  0  0  0  0  0  0
   -4.0861   -2.0275    0.3727 H   0  0  0  0  0  0  0  0  0  0  0  0
   -2.8343    0.0367   -0.0660 H   0  0  0  0  0  0  0  0  0  0  0  0
    0.7362   -2.2884   -0.7572 H   0  0  0  0  0  0  0  0  0  0  0  0
   -0.5223   -4.3437   -0.3377 H   0  0  0  0  0  0  0  0  0  0  0  0
    0.6525    1.2220   -2.3780 H   0  0  0  0  0  0  0  0  0  0  0  0
    0.7412   -0.5496   -2.4216 H   0  0  0  0  0  0  0  0  0  0  0  0
    4.9884   -0.5369   -0.8542 H   0  0  0  0  0  0  0  0  0  0  0  0
    4.1922   -0.7667    0.7674 H   0  0  0  0  0  0  0  0  0  0  0  0
    4.0078    1.5483    1.0206 H   0  0  0  0  0  0  0  0  0  0  0  0
    4.8502    1.7798   -0.5830 H   0  0  0  0  0  0  0  0  0  0  0  0
    2.3348    2.5518   -0.7351 H   0  0  0  0  0  0  0  0  0  0  0  0
   -0.2019    0.3018    1.9935 H   0  0  0  0  0  0  0  0  0  0  0  0
   -0.7029    3.0004    4.3917 H   0  0  0  0  0  0  0  0  0  0  0  0
   -1.0224    4.4957    2.4489 H   0  0  0  0  0  0  0  0  0  0  0  0
   -1.1115    4.7492   -0.0087 H   0  0  0  0  0  0  0  0  0  0  0  0
   -0.7656    2.8013   -1.4756 H   0  0  0  0  0  0  0  0  0  0  0  0
  1  2  1  0
  2  3  2  0
  3  4  1  0
  4  5  2  0
  5  6  1  0
  6  7  2  0
  5  8  1  0
  8  9  1  0
  9 10  1  0
 10 11  2  0
 11 12  1  0
 12 13  1  0
 13 14  1  0
  8 15  1  0
 15 16  2  0
 16 17  1  0
 17 18  1  0
 17 19  2  0
 19 20  1  0
 20 21  2  0
  7  2  1  0
 14 10  1  0
 21 15  1  0
  1 22  1  0
  1 23  1  0
  1 24  1  0
  3 25  1  0
  4 26  1  0
  6 27  1  0
  7 28  1  0
  9 29  1  0
  9 30  1  0
 12 31  1  0
 12 32  1  0
 13 33  1  0
 13 34  1  0
 14 35  1  0
 16 36  1  0
 18 37  1  0
 19 38  1  0
 20 39  1  0
 21 40  1  0
M  END
$$$$
