
     RDKit          3D

 38 41  0  0  0  0  0  0  0  0999 V2000
    6.0032   -0.4499    2.8470 N   0  0  0  0  0  0  0  0  0  0  0  0
    6.0958    0.0268    1.5021 C   0  0  0  0  0  0  0  0  0  0  0  0
    7.2035    0.5737    1.1069 N   0  0  0  0  0  0  0  0  0  0  0  0
    4.9355   -0.0958    0.5846 C   0  0  0  0  0  0  0  0  0  0  0  0
    5.1294   -0.3750   -0.7974 C   0  0  0  0  0  0  0  0  0  0  0  0
    4.0311   -0.4954   -1.6688 C   0  0  0  0  0  0  0  0  0  0  0  0
    2.7598   -0.3333   -1.1290 C   0  0  0  0  0  0  0  0  0  0  0  0
    1.5769   -0.4001   -1.7509 N   0  0  0  0  0  0  0  0  0  0  0  0
    0.6746   -0.1664   -0.7645 C   0  0  0  0  0  0  0  0  0  0  0  0
    1.2457    0.0427    0.4516 N   0  0  0  0  0  0  0  0  0  0  0  0
    2.5601   -0.0691    0.1901 C   0  0  0  0  0  0  0  0  0  0  0  0
    3.6196    0.0568    1.0843 C   0  0  0  0  0  0  0  0  0  0  0  0
   -0.7802   -0.1492   -1.0019 C   0  0  0  0  0  0  0  0  0  0  0  0
   -1.3270   -0.3826   -2.2125 N   0  0  0  0  0  0  0  0  0  0  0  0
   -2.6432   -0.2915   -2.0969 N   0  0  0  0  0  0  0  0  0  0  0  0
   -2.9713   -0.0067   -0.8205 C   0  0  0  0  0  0  0  0  0  0  0  0
   -1.8002    0.0980   -0.0933 C   0  0  0  0  0  0  0  0  0  0  0  0
   -1.6968    0.4211    1.2588 O   0  0  0  0  0  0  0  0  0  0  0  0
   -4.3587    0.1689   -0.3302 C   0  0  0  0  0  0  0  0  0  0  0  0
   -5.3568    0.6536   -1.1952 C   0  0  0  0  0  0  0  0  0  0  0  0
   -6.6688    0.8189   -0.7406 C   0  0  0  0  0  0  0  0  0  0  0  0
   -6.9995    0.4979    0.5777 C   0  0  0  0  0  0  0  0  0  0  0  0
   -6.0190    0.0088    1.4434 C   0  0  0  0  0  0  0  0  0  0  0  0
   -4.7051   -0.1573    0.9943 C   0  0  0  0  0  0  0  0  0  0  0  0
    6.8038   -0.3264    3.5062 H   0  0  0  0  0  0  0  0  0  0  0  0
    5.1636   -0.9737    3.1793 H   0  0  0  0  0  0  0  0  0  0  0  0
    7.3339    0.9625    0.1466 H   0  0  0  0  0  0  0  0  0  0  0  0
    6.1250   -0.5196   -1.1965 H   0  0  0  0  0  0  0  0  0  0  0  0
    4.1713   -0.7111   -2.7201 H   0  0  0  0  0  0  0  0  0  0  0  0
    1.3955   -0.5884   -2.7623 H   0  0  0  0  0  0  0  0  0  0  0  0
    3.4280    0.2838    2.1253 H   0  0  0  0  0  0  0  0  0  0  0  0
   -3.3043   -0.4442   -2.8901 H   0  0  0  0  0  0  0  0  0  0  0  0
   -0.8091    0.5016    1.7335 H   0  0  0  0  0  0  0  0  0  0  0  0
   -5.1213    0.9225   -2.2168 H   0  0  0  0  0  0  0  0  0  0  0  0
   -7.4293    1.1985   -1.4108 H   0  0  0  0  0  0  0  0  0  0  0  0
   -8.0158    0.6255    0.9274 H   0  0  0  0  0  0  0  0  0  0  0  0
   -6.2782   -0.2481    2.4625 H   0  0  0  0  0  0  0  0  0  0  0  0
   -3.9716   -0.5642    1.6769 H   0  0  0  0  0  0  0  0  0  0  0  0
  1  2  1  0
  2  3  2  3
  2  4  1  0
  4  5  2  0
  5  6  1  0
  6  7  2  0
  7  8  1  0
  8  9  1  0
  9 10  2  0
 10 11  1  0
 11 12  2  0
  9 13  1  0
 13 14  2  0
 14 15  1  0
 15 16  1  0
 16 17  2  0
 17 18  1  0
 16 19  1  0
 19 20  2  0
 20 21  1  0
 21 22  2  0
 22 23  1  0
 23 24  2  0
 12  4  1  0
 17 13  1  0
 24 19  1  0
 11  7  1  0
  1 25  1  0
  1 26  1  0
  3 27  1  0
  5 28  1  0
  6 29  1  0
  8 30  1  0
 12 31  1  0
 15 32  1  0
 18 33  1  0
 20 34  1  0
 21 35  1  0
 22 36  1  0
 23 37  1  0
 24 38  1  0
M  END
$$$$
