
     RDKit          3D

 62 64  0  0  0  0  0  0  0  0999 V2000
    4.6221    3.1454    1.6218 C   0  0  0  0  0  0  0  0  0  0  0  0
    4.9777    1.8403    0.9201 C   0  0  0  0  0  0  0  0  0  0  0  0
    3.8411    0.9825    0.8472 O   0  0  0  0  0  0  0  0  0  0  0  0
    2.7975    1.1631   -0.0675 C   0  0  0  0  0  0  0  0  0  0  0  0
    2.8172    2.1265   -0.8827 O   0  0  0  0  0  0  0  0  0  0  0  0
    1.6407    0.2047   -0.0647 C   0  0  2  0  0  0  0  0  0  0  0  0
    1.4672   -0.4727   -1.4519 C   0  0  0  0  0  0  0  0  0  0  0  0
    2.4392   -1.6413   -1.6941 C   0  0  0  0  0  0  0  0  0  0  0  0
    3.8777   -1.1985   -1.7811 C   0  0  0  0  0  0  0  0  0  0  0  0
    4.3199   -0.4375   -2.8766 C   0  0  0  0  0  0  0  0  0  0  0  0
    5.6478   -0.0048   -2.9439 C   0  0  0  0  0  0  0  0  0  0  0  0
    6.5442   -0.3329   -1.9234 C   0  0  0  0  0  0  0  0  0  0  0  0
    6.1149   -1.0962   -0.8346 C   0  0  0  0  0  0  0  0  0  0  0  0
    4.7874   -1.5292   -0.7619 C   0  0  0  0  0  0  0  0  0  0  0  0
    0.4267    0.9489    0.3234 N   0  0  0  0  0  0  0  0  0  0  0  0
   -0.5806    0.0954    0.9878 C   0  0  1  0  0  0  0  0  0  0  0  0
   -0.3282    0.0777    2.4987 C   0  0  0  0  0  0  0  0  0  0  0  0
   -1.9711    0.6137    0.7110 C   0  0  0  0  0  0  0  0  0  0  0  0
   -2.2749    1.7908    1.0483 O   0  0  0  0  0  0  0  0  0  0  0  0
   -2.9345   -0.2101    0.0254 N   0  0  0  0  0  0  0  0  0  0  0  0
   -3.3125   -1.5031    0.6043 C   0  0  0  0  0  0  0  0  0  0  0  0
   -4.7456   -1.4682    1.0854 C   0  0  0  0  0  0  0  0  0  0  0  0
   -5.2098   -2.4948    1.9224 C   0  0  0  0  0  0  0  0  0  0  0  0
   -6.5401   -2.5135    2.3472 C   0  0  0  0  0  0  0  0  0  0  0  0
   -7.4214   -1.5127    1.9353 C   0  0  0  0  0  0  0  0  0  0  0  0
   -6.9781   -0.4911    1.0922 C   0  0  0  0  0  0  0  0  0  0  0  0
   -5.6478   -0.4649    0.6442 C   0  0  0  0  0  0  0  0  0  0  0  0
   -5.1889    0.6874   -0.2241 C   0  0  0  0  0  0  0  0  0  0  0  0
   -3.8795    0.3478   -0.9523 C   0  0  1  0  0  0  0  0  0  0  0  0
   -3.2912    1.5064   -1.7202 C   0  0  0  0  0  0  0  0  0  0  0  0
   -2.2201    1.2779   -2.5784 O   0  0  0  0  0  0  0  0  0  0  0  0
   -3.7409    2.6764   -1.5804 O   0  0  0  0  0  0  0  0  0  0  0  0
    3.8613    3.7045    1.0384 H   0  0  0  0  0  0  0  0  0  0  0  0
    5.5306    3.7760    1.7194 H   0  0  0  0  0  0  0  0  0  0  0  0
    4.2203    2.9330    2.6351 H   0  0  0  0  0  0  0  0  0  0  0  0
    5.3754    2.0436   -0.0981 H   0  0  0  0  0  0  0  0  0  0  0  0
    5.7710    1.3260    1.5022 H   0  0  0  0  0  0  0  0  0  0  0  0
    1.8629   -0.5811    0.6923 H   0  0  0  0  0  0  0  0  0  0  0  0
    1.5562    0.2759   -2.2694 H   0  0  0  0  0  0  0  0  0  0  0  0
    0.4392   -0.8877   -1.5273 H   0  0  0  0  0  0  0  0  0  0  0  0
    2.3069   -2.4027   -0.8944 H   0  0  0  0  0  0  0  0  0  0  0  0
    2.1658   -2.1369   -2.6509 H   0  0  0  0  0  0  0  0  0  0  0  0
    3.6351   -0.1750   -3.6733 H   0  0  0  0  0  0  0  0  0  0  0  0
    5.9816    0.5860   -3.7870 H   0  0  0  0  0  0  0  0  0  0  0  0
    7.5710    0.0050   -1.9758 H   0  0  0  0  0  0  0  0  0  0  0  0
    6.8092   -1.3469   -0.0431 H   0  0  0  0  0  0  0  0  0  0  0  0
    4.4671   -2.1098    0.0942 H   0  0  0  0  0  0  0  0  0  0  0  0
    0.0245    1.4102   -0.5285 H   0  0  0  0  0  0  0  0  0  0  0  0
   -0.5187   -0.9513    0.6138 H   0  0  0  0  0  0  0  0  0  0  0  0
   -1.1057   -0.5262    3.0134 H   0  0  0  0  0  0  0  0  0  0  0  0
    0.6609   -0.3741    2.7208 H   0  0  0  0  0  0  0  0  0  0  0  0
   -0.3441    1.1104    2.9087 H   0  0  0  0  0  0  0  0  0  0  0  0
   -2.6430   -1.7740    1.4491 H   0  0  0  0  0  0  0  0  0  0  0  0
   -3.2145   -2.2908   -0.1730 H   0  0  0  0  0  0  0  0  0  0  0  0
   -4.5395   -3.2818    2.2457 H   0  0  0  0  0  0  0  0  0  0  0  0
   -6.8886   -3.3060    2.9969 H   0  0  0  0  0  0  0  0  0  0  0  0
   -8.4503   -1.5276    2.2711 H   0  0  0  0  0  0  0  0  0  0  0  0
   -7.6727    0.2824    0.7882 H   0  0  0  0  0  0  0  0  0  0  0  0
   -5.0404    1.5739    0.4300 H   0  0  0  0  0  0  0  0  0  0  0  0
   -5.9722    0.9311   -0.9753 H   0  0  0  0  0  0  0  0  0  0  0  0
   -4.1096   -0.4385   -1.7064 H   0  0  0  0  0  0  0  0  0  0  0  0
   -1.7954    2.0392   -3.0942 H   0  0  0  0  0  0  0  0  0  0  0  0
  1  2  1  0
  2  3  1  0
  3  4  1  0
  4  5  2  0
  4  6  1  0
  6  7  1  0
  7  8  1  0
  8  9  1  0
  9 10  2  0
 10 11  1  0
 11 12  2  0
 12 13  1  0
 13 14  2  0
  6 15  1  0
 15 16  1  0
 16 17  1  0
 16 18  1  0
 18 19  2  0
 18 20  1  0
 20 21  1  0
 21 22  1  0
 22 23  2  0
 23 24  1  0
 24 25  2  0
 25 26  1  0
 26 27  2  0
 27 28  1  0
 28 29  1  0
 29 30  1  0
 30 31  1  0
 30 32  2  0
 14  9  1  0
 29 20  1  0
 27 22  1  0
  1 33  1  0
  1 34  1  0
  1 35  1  0
  2 36  1  0
  2 37  1  0
  6 38  1  1
  7 39  1  0
  7 40  1  0
  8 41  1  0
  8 42  1  0
 10 43  1  0
 11 44  1  0
 12 45  1  0
 13 46  1  0
 14 47  1  0
 15 48  1  0
 16 49  1  6
 17 50  1  0
 17 51  1  0
 17 52  1  0
 21 53  1  0
 21 54  1  0
 23 55  1  0
 24 56  1  0
 25 57  1  0
 26 58  1  0
 28 59  1  0
 28 60  1  0
 29 61  1  6
 31 62  1  0
M  END
$$$$
