
     RDKit          3D

 52 55  0  0  0  0  0  0  0  0999 V2000
   -7.2112   -0.5333   -0.7900 N   0  0  0  0  0  0  0  0  0  0  0  0
   -6.3941   -0.8519   -1.9238 C   0  0  0  0  0  0  0  0  0  0  0  0
   -6.9594   -1.6001   -2.9999 N   0  0  0  0  0  0  0  0  0  0  0  0
   -5.1681   -0.4232   -2.0303 N   0  0  0  0  0  0  0  0  0  0  0  0
   -4.4058    0.2640   -1.0269 C   0  0  0  0  0  0  0  0  0  0  0  0
   -4.3528   -0.2007    0.2986 C   0  0  0  0  0  0  0  0  0  0  0  0
   -3.5577    0.4540    1.2436 C   0  0  0  0  0  0  0  0  0  0  0  0
   -2.7904    1.5689    0.8731 C   0  0  0  0  0  0  0  0  0  0  0  0
   -1.9139    2.2498    1.8890 C   0  0  0  0  0  0  0  0  0  0  0  0
   -0.7749    1.3987    2.2255 N   0  0  0  0  0  0  0  0  0  0  0  0
    0.3109    1.1687    1.3171 C   0  0  0  0  0  0  0  0  0  0  0  0
    0.3382    1.7695    0.2094 O   0  0  0  0  0  0  0  0  0  0  0  0
    1.3587    0.2535    1.6822 N   0  0  0  0  0  0  0  0  0  0  0  0
    2.4987   -0.1213    0.8237 C   0  0  0  0  0  0  0  0  0  0  0  0
    2.0027   -0.7748   -0.4969 C   0  0  0  0  0  0  0  0  0  0  0  0
    3.2102   -1.1817   -1.3709 C   0  0  0  0  0  0  0  0  0  0  0  0
    4.0557    0.0702   -1.6962 C   0  0  0  0  0  0  0  0  0  0  0  0
    4.5731    0.7040   -0.3853 C   0  0  0  0  0  0  0  0  0  0  0  0
    5.4384   -0.3227    0.3757 C   0  0  0  0  0  0  0  0  0  0  0  0
    4.5901   -1.5698    0.7025 C   0  0  0  0  0  0  0  0  0  0  0  0
    4.0783   -2.2044   -0.6078 C   0  0  0  0  0  0  0  0  0  0  0  0
    3.3861   -1.1557    1.5756 C   0  0  0  0  0  0  0  0  0  0  0  0
    3.3729    1.1211    0.4941 C   0  0  0  0  0  0  0  0  0  0  0  0
   -2.8133    2.0072   -0.4604 C   0  0  0  0  0  0  0  0  0  0  0  0
   -3.6086    1.3509   -1.4045 C   0  0  0  0  0  0  0  0  0  0  0  0
   -8.1610   -0.9567   -0.6988 H   0  0  0  0  0  0  0  0  0  0  0  0
   -6.9422    0.2037   -0.1025 H   0  0  0  0  0  0  0  0  0  0  0  0
   -7.9477   -1.9334   -2.9530 H   0  0  0  0  0  0  0  0  0  0  0  0
   -6.3909   -1.8246   -3.8467 H   0  0  0  0  0  0  0  0  0  0  0  0
   -4.9121   -1.0787    0.5956 H   0  0  0  0  0  0  0  0  0  0  0  0
   -3.5294    0.0851    2.2615 H   0  0  0  0  0  0  0  0  0  0  0  0
   -1.5521    3.2347    1.5211 H   0  0  0  0  0  0  0  0  0  0  0  0
   -2.5109    2.4442    2.8064 H   0  0  0  0  0  0  0  0  0  0  0  0
   -0.7600    0.9355    3.1620 H   0  0  0  0  0  0  0  0  0  0  0  0
    1.2830   -0.1867    2.6276 H   0  0  0  0  0  0  0  0  0  0  0  0
    1.3828   -1.6702   -0.2694 H   0  0  0  0  0  0  0  0  0  0  0  0
    1.3658   -0.0746   -1.0762 H   0  0  0  0  0  0  0  0  0  0  0  0
    2.8458   -1.6387   -2.3167 H   0  0  0  0  0  0  0  0  0  0  0  0
    3.4419    0.8078   -2.2586 H   0  0  0  0  0  0  0  0  0  0  0  0
    4.9136   -0.2103   -2.3460 H   0  0  0  0  0  0  0  0  0  0  0  0
    5.1867    1.5999   -0.6240 H   0  0  0  0  0  0  0  0  0  0  0  0
    6.3169   -0.6118   -0.2423 H   0  0  0  0  0  0  0  0  0  0  0  0
    5.8278    0.1294    1.3143 H   0  0  0  0  0  0  0  0  0  0  0  0
    5.2126   -2.3078    1.2537 H   0  0  0  0  0  0  0  0  0  0  0  0
    4.9383   -2.5191   -1.2390 H   0  0  0  0  0  0  0  0  0  0  0  0
    3.4820   -3.1158   -0.3817 H   0  0  0  0  0  0  0  0  0  0  0  0
    2.7872   -2.0576    1.8333 H   0  0  0  0  0  0  0  0  0  0  0  0
    3.7534   -0.7210    2.5319 H   0  0  0  0  0  0  0  0  0  0  0  0
    3.7390    1.5895    1.4344 H   0  0  0  0  0  0  0  0  0  0  0  0
    2.7870    1.8913   -0.0487 H   0  0  0  0  0  0  0  0  0  0  0  0
   -2.2109    2.8514   -0.7720 H   0  0  0  0  0  0  0  0  0  0  0  0
   -3.6105    1.6937   -2.4317 H   0  0  0  0  0  0  0  0  0  0  0  0
  1  2  1  0
  2  3  1  0
  2  4  2  3
  4  5  1  0
  5  6  2  0
  6  7  1  0
  7  8  2  0
  8  9  1  0
  9 10  1  0
 10 11  1  0
 11 12  2  0
 11 13  1  0
 13 14  1  0
 14 15  1  0
 15 16  1  0
 16 17  1  0
 17 18  1  0
 18 19  1  0
 19 20  1  0
 20 21  1  0
 20 22  1  0
 18 23  1  0
  8 24  1  0
 24 25  2  0
 25  5  1  0
 22 14  1  0
 23 14  1  0
 21 16  1  0
  1 26  1  0
  1 27  1  0
  3 28  1  0
  3 29  1  0
  6 30  1  0
  7 31  1  0
  9 32  1  0
  9 33  1  0
 10 34  1  0
 13 35  1  0
 15 36  1  0
 15 37  1  0
 16 38  1  0
 17 39  1  0
 17 40  1  0
 18 41  1  0
 19 42  1  0
 19 43  1  0
 20 44  1  0
 21 45  1  0
 21 46  1  0
 22 47  1  0
 22 48  1  0
 23 49  1  0
 23 50  1  0
 24 51  1  0
 25 52  1  0
M  END
$$$$
