
     RDKit          3D

 58 62  0  0  0  0  0  0  0  0999 V2000
   -2.8652   -2.3853    0.5961 C   0  0  0  0  0  0  0  0  0  0  0  0
   -3.3794   -0.9757    0.6561 C   0  0  0  0  0  0  0  0  0  0  0  0
   -2.5336    0.1283    0.8952 C   0  0  0  0  0  0  0  0  0  0  0  0
   -1.0336   -0.0334    1.0519 C   0  0  0  0  0  0  0  0  0  0  0  0
   -0.3308    0.1244   -0.3128 C   0  0  0  0  0  0  0  0  0  0  0  0
    1.1244   -0.1417   -0.2859 N   0  0  0  0  0  0  0  0  0  0  0  0
    1.8657    0.7532    0.6234 C   0  0  0  0  0  0  0  0  0  0  0  0
    3.3709    0.6112    0.3739 C   0  0  0  0  0  0  0  0  0  0  0  0
    3.8061   -0.8568    0.5417 C   0  0  0  0  0  0  0  0  0  0  0  0
    2.9393   -1.8012   -0.3123 C   0  0  0  0  0  0  0  0  0  0  0  0
    1.4523   -1.5585   -0.0332 C   0  0  0  0  0  0  0  0  0  0  0  0
    5.2747   -1.0365    0.2498 C   0  0  0  0  0  0  0  0  0  0  0  0
    6.1674   -1.4601    1.1776 N   0  0  0  0  0  0  0  0  0  0  0  0
    7.3427   -1.5087    0.6095 O   0  0  0  0  0  0  0  0  0  0  0  0
    7.2557   -1.1371   -0.6427 C   0  0  0  0  0  0  0  0  0  0  0  0
    5.9585   -0.8216   -0.9361 C   0  0  0  0  0  0  0  0  0  0  0  0
    5.5787   -0.3916   -2.2093 C   0  0  0  0  0  0  0  0  0  0  0  0
    6.5826   -0.2920   -3.1913 C   0  0  0  0  0  0  0  0  0  0  0  0
    7.9233   -0.6193   -2.8837 C   0  0  0  0  0  0  0  0  0  0  0  0
    8.8786   -0.5182   -3.8403 F   0  0  0  0  0  0  0  0  0  0  0  0
    8.2719   -1.0496   -1.5898 C   0  0  0  0  0  0  0  0  0  0  0  0
   -3.1156    1.4125    0.9135 C   0  0  0  0  0  0  0  0  0  0  0  0
   -2.3789    2.4263    1.0691 O   0  0  0  0  0  0  0  0  0  0  0  0
   -4.4697    1.5631    0.7576 N   0  0  0  0  0  0  0  0  0  0  0  0
   -5.1000    2.8964    0.7162 C   0  0  0  0  0  0  0  0  0  0  0  0
   -6.4141    2.9240    1.5208 C   0  0  0  0  0  0  0  0  0  0  0  0
   -7.2649    1.6370    1.3969 C   0  0  0  0  0  0  0  0  0  0  0  0
   -6.7409    0.6519    0.3438 C   0  0  0  0  0  0  0  0  0  0  0  0
   -7.4238   -0.5688    0.4724 O   0  0  0  0  0  0  0  0  0  0  0  0
   -5.2589    0.4680    0.5438 C   0  0  0  0  0  0  0  0  0  0  0  0
   -4.7099   -0.7719    0.4922 N   0  0  0  0  0  0  0  0  0  0  0  0
   -3.6707   -3.0794    0.2747 H   0  0  0  0  0  0  0  0  0  0  0  0
   -2.0331   -2.4648   -0.1336 H   0  0  0  0  0  0  0  0  0  0  0  0
   -2.5140   -2.7009    1.6007 H   0  0  0  0  0  0  0  0  0  0  0  0
   -0.8021   -1.0153    1.5071 H   0  0  0  0  0  0  0  0  0  0  0  0
   -0.6562    0.7305    1.7637 H   0  0  0  0  0  0  0  0  0  0  0  0
   -0.4983    1.1583   -0.6865 H   0  0  0  0  0  0  0  0  0  0  0  0
   -0.8086   -0.5485   -1.0580 H   0  0  0  0  0  0  0  0  0  0  0  0
    1.5767    1.8113    0.4391 H   0  0  0  0  0  0  0  0  0  0  0  0
    1.6492    0.5100    1.6875 H   0  0  0  0  0  0  0  0  0  0  0  0
    3.5977    0.9759   -0.6493 H   0  0  0  0  0  0  0  0  0  0  0  0
    3.9235    1.2501    1.0970 H   0  0  0  0  0  0  0  0  0  0  0  0
    3.6447   -1.1315    1.6090 H   0  0  0  0  0  0  0  0  0  0  0  0
    3.1891   -2.8577   -0.0720 H   0  0  0  0  0  0  0  0  0  0  0  0
    3.1289   -1.6413   -1.3939 H   0  0  0  0  0  0  0  0  0  0  0  0
    0.8580   -2.2167   -0.7045 H   0  0  0  0  0  0  0  0  0  0  0  0
    1.2314   -1.8416    1.0192 H   0  0  0  0  0  0  0  0  0  0  0  0
    4.5558   -0.1403   -2.4492 H   0  0  0  0  0  0  0  0  0  0  0  0
    6.3246    0.0380   -4.1892 H   0  0  0  0  0  0  0  0  0  0  0  0
    9.2934   -1.3037   -1.3388 H   0  0  0  0  0  0  0  0  0  0  0  0
   -5.3134    3.1576   -0.3434 H   0  0  0  0  0  0  0  0  0  0  0  0
   -4.4307    3.6848    1.1230 H   0  0  0  0  0  0  0  0  0  0  0  0
   -7.0142    3.7991    1.1890 H   0  0  0  0  0  0  0  0  0  0  0  0
   -6.1690    3.0874    2.5933 H   0  0  0  0  0  0  0  0  0  0  0  0
   -8.3153    1.9072    1.1518 H   0  0  0  0  0  0  0  0  0  0  0  0
   -7.2822    1.1254    2.3854 H   0  0  0  0  0  0  0  0  0  0  0  0
   -6.9174    1.0850   -0.6685 H   0  0  0  0  0  0  0  0  0  0  0  0
   -7.3216   -1.0471   -0.3919 H   0  0  0  0  0  0  0  0  0  0  0  0
  1  2  1  0
  2  3  2  0
  3  4  1  0
  4  5  1  0
  5  6  1  0
  6  7  1  0
  7  8  1  0
  8  9  1  0
  9 10  1  0
 10 11  1  0
  9 12  1  0
 12 13  2  0
 13 14  1  0
 14 15  1  0
 15 16  2  0
 16 17  1  0
 17 18  2  0
 18 19  1  0
 19 20  1  0
 19 21  2  0
  3 22  1  0
 22 23  2  0
 22 24  1  0
 24 25  1  0
 25 26  1  0
 26 27  1  0
 27 28  1  0
 28 29  1  0
 28 30  1  0
 30 31  2  0
 31  2  1  0
 11  6  1  0
 16 12  1  0
 30 24  1  0
 21 15  1  0
  1 32  1  0
  1 33  1  0
  1 34  1  0
  4 35  1  0
  4 36  1  0
  5 37  1  0
  5 38  1  0
  7 39  1  0
  7 40  1  0
  8 41  1  0
  8 42  1  0
  9 43  1  0
 10 44  1  0
 10 45  1  0
 11 46  1  0
 11 47  1  0
 17 48  1  0
 18 49  1  0
 21 50  1  0
 25 51  1  0
 25 52  1  0
 26 53  1  0
 26 54  1  0
 27 55  1  0
 27 56  1  0
 28 57  1  0
 29 58  1  0
M  END
$$$$
