
     RDKit          3D

 69 71  0  0  0  0  0  0  0  0999 V2000
   -0.2029   -3.9128    2.8087 C   0  0  1  0  0  0  0  0  0  0  0  0
   -1.2065   -5.0149    2.4208 C   0  0  0  0  0  0  0  0  0  0  0  0
    1.2515   -4.4530    2.8085 C   0  0  0  0  0  0  0  0  0  0  0  0
    1.7442   -4.9687    1.4531 C   0  0  0  0  0  0  0  0  0  0  0  0
   -0.3817   -2.6435    1.9280 C   0  0  2  0  0  0  0  0  0  0  0  0
    0.5861   -1.6124    2.3174 N   0  0  0  0  0  0  0  0  0  0  0  0
    1.4531   -0.9666    1.3770 C   0  0  0  0  0  0  0  0  0  0  0  0
    1.7034   -1.5020    0.2634 O   0  0  0  0  0  0  0  0  0  0  0  0
    2.0108    0.3839    1.6901 C   0  0  1  0  0  0  0  0  0  0  0  0
    3.0586    0.3168    2.6301 O   0  0  0  0  0  0  0  0  0  0  0  0
    3.4218    0.6131    1.3004 C   0  0  2  0  0  0  0  0  0  0  0  0
    3.7666    2.0532    1.1034 C   0  0  0  0  0  0  0  0  0  0  0  0
    4.5190    2.6387    1.9282 O   0  0  0  0  0  0  0  0  0  0  0  0
    3.2529    2.7507   -0.0373 N   0  0  0  0  0  0  0  0  0  0  0  0
    3.4312    4.1915   -0.2059 C   0  0  0  0  0  0  0  0  0  0  0  0
    2.6877    4.6854   -1.4518 C   0  0  0  0  0  0  0  0  0  0  0  0
    2.8563    6.1901   -1.6371 C   0  0  0  0  0  0  0  0  0  0  0  0
   -1.7756   -2.0651    2.0750 C   0  0  0  0  0  0  0  0  0  0  0  0
   -2.1874   -1.7789    3.2331 O   0  0  0  0  0  0  0  0  0  0  0  0
   -2.6348   -1.8078    0.9438 N   0  0  0  0  0  0  0  0  0  0  0  0
   -3.9948   -1.3179    1.1100 C   0  0  0  0  0  0  0  0  0  0  0  0
   -4.5228   -1.0644   -0.2954 C   0  0  0  0  0  0  0  0  0  0  0  0
   -3.5947   -1.8353   -1.2269 C   0  0  0  0  0  0  0  0  0  0  0  0
   -2.2815   -1.9945   -0.4598 C   0  0  1  0  0  0  0  0  0  0  0  0
   -1.2892   -0.9534   -0.8958 C   0  0  0  0  0  0  0  0  0  0  0  0
   -0.4933   -1.2098   -1.8400 O   0  0  0  0  0  0  0  0  0  0  0  0
   -1.2956    0.3094   -0.2909 O   0  0  0  0  0  0  0  0  0  0  0  0
   -0.4414    1.3761   -0.6973 C   0  0  0  0  0  0  0  0  0  0  0  0
   -0.8837    1.9448   -2.0176 C   0  0  0  0  0  0  0  0  0  0  0  0
   -2.2296    2.2914   -2.2226 C   0  0  0  0  0  0  0  0  0  0  0  0
   -2.6364    2.8450   -3.4403 C   0  0  0  0  0  0  0  0  0  0  0  0
   -1.7019    3.0677   -4.4555 C   0  0  0  0  0  0  0  0  0  0  0  0
   -0.3586    2.7394   -4.2535 C   0  0  0  0  0  0  0  0  0  0  0  0
    0.0521    2.1828   -3.0383 C   0  0  0  0  0  0  0  0  0  0  0  0
   -0.4240   -3.6315    3.8631 H   0  0  0  0  0  0  0  0  0  0  0  0
   -1.1552   -5.2352    1.3336 H   0  0  0  0  0  0  0  0  0  0  0  0
   -2.2424   -4.6959    2.6621 H   0  0  0  0  0  0  0  0  0  0  0  0
   -1.0006   -5.9463    2.9900 H   0  0  0  0  0  0  0  0  0  0  0  0
    1.3260   -5.2835    3.5442 H   0  0  0  0  0  0  0  0  0  0  0  0
    1.9456   -3.6603    3.1613 H   0  0  0  0  0  0  0  0  0  0  0  0
    1.7349   -4.1652    0.6905 H   0  0  0  0  0  0  0  0  0  0  0  0
    2.7900   -5.3263    1.5584 H   0  0  0  0  0  0  0  0  0  0  0  0
    1.1261   -5.8210    1.1039 H   0  0  0  0  0  0  0  0  0  0  0  0
   -0.2113   -2.9407    0.8767 H   0  0  0  0  0  0  0  0  0  0  0  0
    0.5467   -1.2358    3.2922 H   0  0  0  0  0  0  0  0  0  0  0  0
    1.3351    1.2438    1.8863 H   0  0  0  0  0  0  0  0  0  0  0  0
    4.0160   -0.1984    0.8293 H   0  0  0  0  0  0  0  0  0  0  0  0
    2.7083    2.2080   -0.7453 H   0  0  0  0  0  0  0  0  0  0  0  0
    4.5157    4.4159   -0.3032 H   0  0  0  0  0  0  0  0  0  0  0  0
    3.0348    4.7152    0.6914 H   0  0  0  0  0  0  0  0  0  0  0  0
    3.0808    4.1632   -2.3512 H   0  0  0  0  0  0  0  0  0  0  0  0
    1.6048    4.4517   -1.3548 H   0  0  0  0  0  0  0  0  0  0  0  0
    2.3080    6.5159   -2.5460 H   0  0  0  0  0  0  0  0  0  0  0  0
    2.4461    6.7350   -0.7602 H   0  0  0  0  0  0  0  0  0  0  0  0
    3.9305    6.4458   -1.7589 H   0  0  0  0  0  0  0  0  0  0  0  0
   -4.6084   -2.0907    1.6219 H   0  0  0  0  0  0  0  0  0  0  0  0
   -3.9995   -0.3771    1.7023 H   0  0  0  0  0  0  0  0  0  0  0  0
   -4.4596    0.0217   -0.5278 H   0  0  0  0  0  0  0  0  0  0  0  0
   -5.5767   -1.4016   -0.4018 H   0  0  0  0  0  0  0  0  0  0  0  0
   -4.0303   -2.8407   -1.4196 H   0  0  0  0  0  0  0  0  0  0  0  0
   -3.4731   -1.3123   -2.2019 H   0  0  0  0  0  0  0  0  0  0  0  0
   -1.8802   -3.0177   -0.6293 H   0  0  0  0  0  0  0  0  0  0  0  0
   -0.4842    2.1793    0.0675 H   0  0  0  0  0  0  0  0  0  0  0  0
    0.6061    1.0118   -0.7481 H   0  0  0  0  0  0  0  0  0  0  0  0
   -2.9621    2.1318   -1.4409 H   0  0  0  0  0  0  0  0  0  0  0  0
   -3.6755    3.1050   -3.5956 H   0  0  0  0  0  0  0  0  0  0  0  0
   -2.0180    3.4985   -5.3968 H   0  0  0  0  0  0  0  0  0  0  0  0
    0.3654    2.9184   -5.0379 H   0  0  0  0  0  0  0  0  0  0  0  0
    1.0977    1.9402   -2.8947 H   0  0  0  0  0  0  0  0  0  0  0  0
  1  2  1  0
  1  3  1  0
  3  4  1  0
  1  5  1  0
  5  6  1  0
  6  7  1  0
  7  8  2  0
  7  9  1  0
  9 10  1  0
 10 11  1  0
 11 12  1  0
 12 13  2  0
 12 14  1  0
 14 15  1  0
 15 16  1  0
 16 17  1  0
  5 18  1  0
 18 19  2  0
 18 20  1  0
 20 21  1  0
 21 22  1  0
 22 23  1  0
 23 24  1  0
 24 25  1  0
 25 26  2  0
 25 27  1  0
 27 28  1  0
 28 29  1  0
 29 30  2  0
 30 31  1  0
 31 32  2  0
 32 33  1  0
 33 34  2  0
 11  9  1  0
 24 20  1  0
 34 29  1  0
  1 35  1  1
  2 36  1  0
  2 37  1  0
  2 38  1  0
  3 39  1  0
  3 40  1  0
  4 41  1  0
  4 42  1  0
  4 43  1  0
  5 44  1  6
  6 45  1  0
  9 46  1  1
 11 47  1  6
 14 48  1  0
 15 49  1  0
 15 50  1  0
 16 51  1  0
 16 52  1  0
 17 53  1  0
 17 54  1  0
 17 55  1  0
 21 56  1  0
 21 57  1  0
 22 58  1  0
 22 59  1  0
 23 60  1  0
 23 61  1  0
 24 62  1  1
 28 63  1  0
 28 64  1  0
 30 65  1  0
 31 66  1  0
 32 67  1  0
 33 68  1  0
 34 69  1  0
M  END
$$$$
