
     RDKit          3D

 34 33  0  0  0  0  0  0  0  0999 V2000
    4.7159    0.1770    1.3805 C   0  0  0  0  0  0  0  0  0  0  0  0
    4.0263   -0.1223    0.0525 C   0  0  0  0  0  0  0  0  0  0  0  0
    2.5090   -0.2488    0.2319 C   0  0  0  0  0  0  0  0  0  0  0  0
    1.8195   -0.5373   -1.1102 C   0  0  0  0  0  0  0  0  0  0  0  0
    0.3155   -0.8183   -0.9573 C   0  0  0  0  0  0  0  0  0  0  0  0
   -0.4826    0.4399   -0.5603 C   0  0  0  0  0  0  0  0  0  0  0  0
   -2.0251    0.2746   -0.5919 C   0  0  0  0  0  0  0  0  0  0  0  0
   -2.4622   -0.0297   -1.8940 O   0  0  0  0  0  0  0  0  0  0  0  0
   -2.7792    1.8777   -0.1297 P   0  0  0  0  0  5  0  0  0  0  0  0
   -2.3356    2.2984    1.4493 O   0  0  0  0  0  0  0  0  0  0  0  0
   -4.4654    1.7722   -0.2378 O   0  0  0  0  0  0  0  0  0  0  0  0
   -2.2963    2.9519   -1.0782 O   0  0  0  0  0  0  0  0  0  0  0  0
   -2.6016   -1.0063    0.6044 P   0  0  0  0  0  5  0  0  0  0  0  0
   -4.2853   -0.9361    0.7609 O   0  0  0  0  0  0  0  0  0  0  0  0
   -2.1760   -2.5522    0.0609 O   0  0  0  0  0  0  0  0  0  0  0  0
   -1.9700   -0.7654    1.9570 O   0  0  0  0  0  0  0  0  0  0  0  0
    4.3438    1.1354    1.8012 H   0  0  0  0  0  0  0  0  0  0  0  0
    4.5255   -0.6414    2.1071 H   0  0  0  0  0  0  0  0  0  0  0  0
    5.8113    0.2614    1.2198 H   0  0  0  0  0  0  0  0  0  0  0  0
    4.2518    0.6986   -0.6630 H   0  0  0  0  0  0  0  0  0  0  0  0
    4.4363   -1.0705   -0.3588 H   0  0  0  0  0  0  0  0  0  0  0  0
    2.1189    0.7007    0.6565 H   0  0  0  0  0  0  0  0  0  0  0  0
    2.2919   -1.0739    0.9455 H   0  0  0  0  0  0  0  0  0  0  0  0
    1.9754    0.3156   -1.8068 H   0  0  0  0  0  0  0  0  0  0  0  0
    2.2895   -1.4349   -1.5690 H   0  0  0  0  0  0  0  0  0  0  0  0
    0.1756   -1.6184   -0.2013 H   0  0  0  0  0  0  0  0  0  0  0  0
   -0.0498   -1.1991   -1.9336 H   0  0  0  0  0  0  0  0  0  0  0  0
   -0.1800    0.7502    0.4625 H   0  0  0  0  0  0  0  0  0  0  0  0
   -0.2019    1.2620   -1.2549 H   0  0  0  0  0  0  0  0  0  0  0  0
   -2.3017   -0.9929   -2.0633 H   0  0  0  0  0  0  0  0  0  0  0  0
   -2.9987    1.8467    2.0297 H   0  0  0  0  0  0  0  0  0  0  0  0
   -4.7954    2.6444    0.0955 H   0  0  0  0  0  0  0  0  0  0  0  0
   -4.6318   -1.1878   -0.1321 H   0  0  0  0  0  0  0  0  0  0  0  0
   -2.5676   -3.1714    0.7273 H   0  0  0  0  0  0  0  0  0  0  0  0
  1  2  1  0
  2  3  1  0
  3  4  1  0
  4  5  1  0
  5  6  1  0
  6  7  1  0
  7  8  1  0
  7  9  1  0
  9 10  1  0
  9 11  1  0
  9 12  2  0
  7 13  1  0
 13 14  1  0
 13 15  1  0
 13 16  2  0
  1 17  1  0
  1 18  1  0
  1 19  1  0
  2 20  1  0
  2 21  1  0
  3 22  1  0
  3 23  1  0
  4 24  1  0
  4 25  1  0
  5 26  1  0
  5 27  1  0
  6 28  1  0
  6 29  1  0
  8 30  1  0
 10 31  1  0
 11 32  1  0
 14 33  1  0
 15 34  1  0
M  END
$$$$
