
     RDKit          3D

 28 30  0  0  0  0  0  0  0  0999 V2000
    5.8770    0.7763    0.0279 O   0  0  0  0  0  0  0  0  0  0  0  0
    4.4981    0.5790    0.0447 C   0  0  0  0  0  0  0  0  0  0  0  0
    3.6410    1.4661   -0.6195 C   0  0  0  0  0  0  0  0  0  0  0  0
    2.2586    1.2576   -0.5959 C   0  0  0  0  0  0  0  0  0  0  0  0
    1.7185    0.1536    0.0843 C   0  0  0  0  0  0  0  0  0  0  0  0
    2.5832   -0.7254    0.7587 C   0  0  0  0  0  0  0  0  0  0  0  0
    3.9652   -0.5143    0.7342 C   0  0  0  0  0  0  0  0  0  0  0  0
    0.2544   -0.0511    0.1166 C   0  0  0  0  0  0  0  0  0  0  0  0
   -0.3973   -1.2064   -0.0986 C   0  0  0  0  0  0  0  0  0  0  0  0
    0.3806   -2.8866   -0.5920 Br  0  0  0  0  0  0  0  0  0  0  0  0
   -1.8396   -0.9527   -0.0124 C   0  0  0  0  0  0  0  0  0  0  0  0
   -2.0462    0.3794    0.2568 C   0  0  0  0  0  0  0  0  0  0  0  0
   -3.3252    0.9160    0.3908 C   0  0  0  0  0  0  0  0  0  0  0  0
   -4.4247    0.0517    0.2411 C   0  0  0  0  0  0  0  0  0  0  0  0
   -5.7157    0.5581    0.3696 O   0  0  0  0  0  0  0  0  0  0  0  0
   -4.2156   -1.3197   -0.0385 C   0  0  0  0  0  0  0  0  0  0  0  0
   -2.9121   -1.8310   -0.1685 C   0  0  0  0  0  0  0  0  0  0  0  0
   -0.7427    1.0020    0.3472 C   0  0  0  0  0  0  0  0  0  0  0  0
   -0.5121    2.2141    0.5997 O   0  0  0  0  0  0  0  0  0  0  0  0
    6.2938    1.5594   -0.4620 H   0  0  0  0  0  0  0  0  0  0  0  0
    4.0444    2.3164   -1.1544 H   0  0  0  0  0  0  0  0  0  0  0  0
    1.6123    1.9494   -1.1216 H   0  0  0  0  0  0  0  0  0  0  0  0
    2.1894   -1.5620    1.3215 H   0  0  0  0  0  0  0  0  0  0  0  0
    4.6221   -1.1976    1.2574 H   0  0  0  0  0  0  0  0  0  0  0  0
   -3.4671    1.9680    0.6027 H   0  0  0  0  0  0  0  0  0  0  0  0
   -6.5297   -0.0366    0.2675 H   0  0  0  0  0  0  0  0  0  0  0  0
   -5.0616   -1.9849   -0.1547 H   0  0  0  0  0  0  0  0  0  0  0  0
   -2.7488   -2.8789   -0.3830 H   0  0  0  0  0  0  0  0  0  0  0  0
  1  2  1  0
  2  3  2  0
  3  4  1  0
  4  5  2  0
  5  6  1  0
  6  7  2  0
  5  8  1  0
  8  9  2  0
  9 10  1  0
  9 11  1  0
 11 12  2  0
 12 13  1  0
 13 14  2  0
 14 15  1  0
 14 16  1  0
 16 17  2  0
 12 18  1  0
 18 19  2  0
  7  2  1  0
 18  8  1  0
 17 11  1  0
  1 20  1  0
  3 21  1  0
  4 22  1  0
  6 23  1  0
  7 24  1  0
 13 25  1  0
 15 26  1  0
 16 27  1  0
 17 28  1  0
M  END
$$$$
