
     RDKit          3D

 50 53  0  0  0  0  0  0  0  0999 V2000
   -1.1233    0.3963   -0.0936 O   0  0  0  0  0  0  0  0  0  0  0  0
   -1.1073   -0.6858    0.5540 C   0  0  0  0  0  0  0  0  0  0  0  0
    0.1429   -1.3216    0.8727 N   0  0  0  0  0  0  0  0  0  0  0  0
    1.4100   -0.9205    0.3243 C   0  0  0  0  0  0  0  0  0  0  0  0
    2.5668   -1.0397    1.1080 C   0  0  0  0  0  0  0  0  0  0  0  0
    3.8140   -0.6777    0.5912 C   0  0  0  0  0  0  0  0  0  0  0  0
    3.9226   -0.1939   -0.7243 C   0  0  0  0  0  0  0  0  0  0  0  0
    5.1578    0.1650   -1.2839 O   0  0  0  0  0  0  0  0  0  0  0  0
    6.2453    0.7012   -0.5785 C   0  0  0  0  0  0  0  0  0  0  0  0
    7.5411    0.4482   -1.0461 C   0  0  0  0  0  0  0  0  0  0  0  0
    8.6500    0.9782   -0.3787 C   0  0  0  0  0  0  0  0  0  0  0  0
    8.4694    1.7761    0.7544 C   0  0  0  0  0  0  0  0  0  0  0  0
    7.1796    2.0508    1.2168 C   0  0  0  0  0  0  0  0  0  0  0  0
    6.0690    1.5219    0.5516 C   0  0  0  0  0  0  0  0  0  0  0  0
    2.7756   -0.1165   -1.5212 C   0  0  0  0  0  0  0  0  0  0  0  0
    1.5273   -0.4768   -1.0050 C   0  0  0  0  0  0  0  0  0  0  0  0
   -2.3835   -1.2599    1.0326 C   0  0  0  0  0  0  0  0  0  0  0  0
   -3.5249   -1.3504    0.2000 C   0  0  0  0  0  0  0  0  0  0  0  0
   -3.4644   -1.0011   -1.1947 N   0  0  0  0  0  0  0  0  0  0  0  0
   -4.6661   -0.7826   -1.9972 C   0  0  0  0  0  0  0  0  0  0  0  0
   -5.3487    0.4886   -1.5722 C   0  0  0  0  0  0  0  0  0  0  0  0
   -4.7603    1.7300   -1.8536 C   0  0  0  0  0  0  0  0  0  0  0  0
   -5.3908    2.9021   -1.4293 C   0  0  0  0  0  0  0  0  0  0  0  0
   -6.5634    2.8365   -0.7444 N   0  0  0  0  0  0  0  0  0  0  0  0
   -7.1528    1.6464   -0.4532 C   0  0  0  0  0  0  0  0  0  0  0  0
   -6.5560    0.4503   -0.8591 C   0  0  0  0  0  0  0  0  0  0  0  0
   -4.6949   -1.8189    0.7195 N   0  0  0  0  0  0  0  0  0  0  0  0
   -4.8112   -2.2120    2.0137 C   0  0  0  0  0  0  0  0  0  0  0  0
   -3.7079   -2.1527    2.8612 C   0  0  0  0  0  0  0  0  0  0  0  0
   -2.4940   -1.6750    2.3696 C   0  0  0  0  0  0  0  0  0  0  0  0
    0.1455   -2.0876    1.5833 H   0  0  0  0  0  0  0  0  0  0  0  0
    2.5000   -1.4106    2.1232 H   0  0  0  0  0  0  0  0  0  0  0  0
    4.6939   -0.7957    1.2098 H   0  0  0  0  0  0  0  0  0  0  0  0
    7.6886   -0.1671   -1.9246 H   0  0  0  0  0  0  0  0  0  0  0  0
    9.6487    0.7718   -0.7411 H   0  0  0  0  0  0  0  0  0  0  0  0
    9.3281    2.1873    1.2693 H   0  0  0  0  0  0  0  0  0  0  0  0
    7.0399    2.6798    2.0866 H   0  0  0  0  0  0  0  0  0  0  0  0
    5.0768    1.7685    0.9059 H   0  0  0  0  0  0  0  0  0  0  0  0
    2.8525    0.2235   -2.5462 H   0  0  0  0  0  0  0  0  0  0  0  0
    0.6628   -0.4346   -1.6539 H   0  0  0  0  0  0  0  0  0  0  0  0
   -2.5421   -0.9339   -1.6798 H   0  0  0  0  0  0  0  0  0  0  0  0
   -4.3834   -0.6983   -3.0692 H   0  0  0  0  0  0  0  0  0  0  0  0
   -5.3444   -1.6590   -1.9083 H   0  0  0  0  0  0  0  0  0  0  0  0
   -3.8225    1.7876   -2.3922 H   0  0  0  0  0  0  0  0  0  0  0  0
   -4.9458    3.8649   -1.6426 H   0  0  0  0  0  0  0  0  0  0  0  0
   -8.0846    1.6283    0.0961 H   0  0  0  0  0  0  0  0  0  0  0  0
   -7.0291   -0.4933   -0.6173 H   0  0  0  0  0  0  0  0  0  0  0  0
   -5.7611   -2.5751    2.3825 H   0  0  0  0  0  0  0  0  0  0  0  0
   -3.7953   -2.4633    3.8944 H   0  0  0  0  0  0  0  0  0  0  0  0
   -1.6504   -1.5999    3.0443 H   0  0  0  0  0  0  0  0  0  0  0  0
  1  2  2  0
  2  3  1  0
  3  4  1  0
  4  5  2  0
  5  6  1  0
  6  7  2  0
  7  8  1  0
  8  9  1  0
  9 10  2  0
 10 11  1  0
 11 12  2  0
 12 13  1  0
 13 14  2  0
  7 15  1  0
 15 16  2  0
  2 17  1  0
 17 18  1  0
 18 19  1  0
 19 20  1  0
 20 21  1  0
 21 22  2  0
 22 23  1  0
 23 24  2  0
 24 25  1  0
 25 26  2  0
 18 27  2  0
 27 28  1  0
 28 29  2  0
 29 30  1  0
 16  4  1  0
 30 17  2  0
 14  9  1  0
 26 21  1  0
  3 31  1  0
  5 32  1  0
  6 33  1  0
 10 34  1  0
 11 35  1  0
 12 36  1  0
 13 37  1  0
 14 38  1  0
 15 39  1  0
 16 40  1  0
 19 41  1  0
 20 42  1  0
 20 43  1  0
 22 44  1  0
 23 45  1  0
 25 46  1  0
 26 47  1  0
 28 48  1  0
 29 49  1  0
 30 50  1  0
M  END
$$$$
