
     RDKit          3D

 51 54  0  0  0  0  0  0  0  0999 V2000
   -1.1520   -0.2372   -1.0089 C   0  0  2  0  0  0  0  0  0  0  0  0
   -2.0246    0.0393   -2.2324 C   0  0  0  0  0  0  0  0  0  0  0  0
   -3.4686   -0.1005   -1.7213 C   0  0  0  0  0  0  0  0  0  0  0  0
   -3.3713   -0.3009   -0.1919 C   0  0  2  0  0  0  0  0  0  0  0  0
   -4.5438    0.2802    0.5797 C   0  0  0  0  0  0  0  0  0  0  0  0
   -5.1442   -0.4595    1.7384 C   0  0  0  0  0  0  0  0  0  0  0  0
   -5.0137    1.3648    0.2682 O   0  0  0  0  0  0  0  0  0  0  0  0
   -1.9794    0.2594    0.1915 C   0  0  2  0  0  0  0  0  0  0  0  0
   -2.0216    1.8190    0.2896 C   0  0  0  0  0  0  0  0  0  0  0  0
   -1.3910   -0.3245    1.5108 C   0  0  0  0  0  0  0  0  0  0  0  0
    0.0974   -0.7437    1.3942 C   0  0  0  0  0  0  0  0  0  0  0  0
    0.9502    0.1483    0.4302 C   0  0  2  0  0  0  0  0  0  0  0  0
    0.2879    0.3204   -0.9978 C   0  0  1  0  0  0  0  0  0  0  0  0
    1.1038   -0.2408   -2.1349 C   0  0  0  0  0  0  0  0  0  0  0  0
    2.4277   -0.1377   -2.1348 C   0  0  0  0  0  0  0  0  0  0  0  0
    3.1415    0.1841   -0.8912 C   0  0  0  0  0  0  0  0  0  0  0  0
    4.4149    0.6058   -0.9610 C   0  0  0  0  0  0  0  0  0  0  0  0
    5.2440    0.7635    0.2431 C   0  0  0  0  0  0  0  0  0  0  0  0
    6.4216    1.1971    0.1359 O   0  0  0  0  0  0  0  0  0  0  0  0
    4.7247    0.3474    1.5844 C   0  0  0  0  0  0  0  0  0  0  0  0
    3.1976    0.4666    1.6269 C   0  0  0  0  0  0  0  0  0  0  0  0
    2.4925   -0.2415    0.4248 C   0  0  1  0  0  0  0  0  0  0  0  0
    2.6985   -1.7764    0.5386 C   0  0  0  0  0  0  0  0  0  0  0  0
   -1.0671   -1.3498   -0.9479 H   0  0  0  0  0  0  0  0  0  0  0  0
   -1.8212   -0.6932   -3.0435 H   0  0  0  0  0  0  0  0  0  0  0  0
   -1.8460    1.0661   -2.6199 H   0  0  0  0  0  0  0  0  0  0  0  0
   -3.9695   -0.9741   -2.1933 H   0  0  0  0  0  0  0  0  0  0  0  0
   -4.0394    0.8159   -1.9863 H   0  0  0  0  0  0  0  0  0  0  0  0
   -3.3622   -1.4026   -0.0211 H   0  0  0  0  0  0  0  0  0  0  0  0
   -5.0795    0.1687    2.6514 H   0  0  0  0  0  0  0  0  0  0  0  0
   -4.6118   -1.4142    1.9306 H   0  0  0  0  0  0  0  0  0  0  0  0
   -6.2104   -0.6823    1.5246 H   0  0  0  0  0  0  0  0  0  0  0  0
   -2.4130    2.2836   -0.6387 H   0  0  0  0  0  0  0  0  0  0  0  0
   -2.6713    2.1382    1.1312 H   0  0  0  0  0  0  0  0  0  0  0  0
   -1.0269    2.2554    0.4965 H   0  0  0  0  0  0  0  0  0  0  0  0
   -1.9700   -1.2167    1.8337 H   0  0  0  0  0  0  0  0  0  0  0  0
   -1.4906    0.4093    2.3408 H   0  0  0  0  0  0  0  0  0  0  0  0
    0.5449   -0.7354    2.4110 H   0  0  0  0  0  0  0  0  0  0  0  0
    0.1137   -1.7955    1.0386 H   0  0  0  0  0  0  0  0  0  0  0  0
    0.8893    1.1624    0.8796 H   0  0  0  0  0  0  0  0  0  0  0  0
    0.2313    1.4099   -1.2162 H   0  0  0  0  0  0  0  0  0  0  0  0
    0.6127   -0.5377   -3.0529 H   0  0  0  0  0  0  0  0  0  0  0  0
    2.9812   -0.3628   -3.0390 H   0  0  0  0  0  0  0  0  0  0  0  0
    4.8598    0.8301   -1.9241 H   0  0  0  0  0  0  0  0  0  0  0  0
    5.1619    0.9978    2.3728 H   0  0  0  0  0  0  0  0  0  0  0  0
    5.0378   -0.6970    1.7931 H   0  0  0  0  0  0  0  0  0  0  0  0
    2.8301    0.0539    2.5912 H   0  0  0  0  0  0  0  0  0  0  0  0
    2.9540    1.5526    1.6211 H   0  0  0  0  0  0  0  0  0  0  0  0
    2.0764   -2.3124   -0.2101 H   0  0  0  0  0  0  0  0  0  0  0  0
    2.4375   -2.1471    1.5524 H   0  0  0  0  0  0  0  0  0  0  0  0
    3.7565   -2.0564    0.3474 H   0  0  0  0  0  0  0  0  0  0  0  0
  1  2  1  0
  2  3  1  0
  3  4  1  0
  4  5  1  0
  5  6  1  0
  5  7  2  0
  4  8  1  0
  8  9  1  1
  8 10  1  0
 10 11  1  0
 11 12  1  0
 12 13  1  0
 13 14  1  0
 14 15  2  0
 15 16  1  0
 16 17  2  0
 17 18  1  0
 18 19  2  0
 18 20  1  0
 20 21  1  0
 21 22  1  0
 22 23  1  1
  8  1  1  0
 22 12  1  0
 13  1  1  0
 22 16  1  0
  1 24  1  1
  2 25  1  0
  2 26  1  0
  3 27  1  0
  3 28  1  0
  4 29  1  6
  6 30  1  0
  6 31  1  0
  6 32  1  0
  9 33  1  0
  9 34  1  0
  9 35  1  0
 10 36  1  0
 10 37  1  0
 11 38  1  0
 11 39  1  0
 12 40  1  1
 13 41  1  6
 14 42  1  0
 15 43  1  0
 17 44  1  0
 20 45  1  0
 20 46  1  0
 21 47  1  0
 21 48  1  0
 23 49  1  0
 23 50  1  0
 23 51  1  0
M  END
$$$$
