
     RDKit          3D

128130  0  0  0  0  0  0  0  0999 V2000
  -14.8013    1.7933    0.0622 N   0  0  0  0  0  0  0  0  0  0  0  0
  -13.3813    1.6987    0.1746 C   0  0  0  0  0  0  0  0  0  0  0  0
  -12.7338    0.4720    0.2714 C   0  0  0  0  0  0  0  0  0  0  0  0
  -13.2488   -0.7720    0.2557 N   0  0  0  0  0  0  0  0  0  0  0  0
  -12.1402   -1.5572    0.3537 C   0  0  0  0  0  0  0  0  0  0  0  0
  -10.9839   -0.8500    0.4376 N   0  0  0  0  0  0  0  0  0  0  0  0
   -9.6214   -1.3854    0.4600 C   0  0  2  0  0  0  0  0  0  0  0  0
   -8.7915   -0.5800    1.2647 O   0  0  0  0  0  0  0  0  0  0  0  0
   -7.5282   -0.4901    0.6328 C   0  0  2  0  0  0  0  0  0  0  0  0
   -7.1956    0.9887    0.3970 C   0  0  0  0  0  0  0  0  0  0  0  0
   -5.9068    1.1019   -0.1590 O   0  0  0  0  0  0  0  0  0  0  0  0
   -5.4715    2.7525   -0.1983 P   0  0  0  0  0  5  0  0  0  0  0  0
   -6.7973    3.7054   -0.6526 O   0  0  0  0  0  0  0  0  0  0  0  0
   -4.3813    2.9473   -1.2278 O   0  0  0  0  0  0  0  0  0  0  0  0
   -4.9148    3.2721    1.3254 O   0  0  0  0  0  0  0  0  0  0  0  0
   -3.7800    2.1283    1.8755 P   0  0  0  0  0  5  0  0  0  0  0  0
   -4.5923    0.7386    2.4044 O   0  0  0  0  0  0  0  0  0  0  0  0
   -3.0255    2.7273    3.0411 O   0  0  0  0  0  0  0  0  0  0  0  0
   -2.6726    1.7440    0.6338 O   0  0  0  0  0  0  0  0  0  0  0  0
   -1.9039    0.6329    1.0368 C   0  0  0  0  0  0  0  0  0  0  0  0
   -0.8680    0.2728   -0.0642 C   0  0  0  0  0  0  0  0  0  0  0  0
    0.0622    1.4863   -0.2988 C   0  0  0  0  0  0  0  0  0  0  0  0
   -1.6072   -0.0247   -1.3904 C   0  0  0  0  0  0  0  0  0  0  0  0
   -0.0068   -0.9813    0.3279 C   0  0  2  0  0  0  0  0  0  0  0  0
   -0.7553   -2.1748    0.2915 O   0  0  0  0  0  0  0  0  0  0  0  0
    0.7137   -0.8407    1.6532 C   0  0  0  0  0  0  0  0  0  0  0  0
    0.1536   -1.2190    2.7187 O   0  0  0  0  0  0  0  0  0  0  0  0
    2.0216   -0.2557    1.7031 N   0  0  0  0  0  0  0  0  0  0  0  0
    2.7724   -0.1705    2.9555 C   0  0  0  0  0  0  0  0  0  0  0  0
    4.1177    0.5435    2.7606 C   0  0  0  0  0  0  0  0  0  0  0  0
    3.9730    2.0016    2.4111 C   0  0  0  0  0  0  0  0  0  0  0  0
    2.9786    2.6580    2.8262 O   0  0  0  0  0  0  0  0  0  0  0  0
    5.0190    2.6646    1.6866 N   0  0  0  0  0  0  0  0  0  0  0  0
    5.0826    4.1199    1.5512 C   0  0  0  0  0  0  0  0  0  0  0  0
    4.1389    4.6250    0.4581 C   0  0  0  0  0  0  0  0  0  0  0  0
    4.6576    3.9994   -1.1825 S   0  0  0  0  0  0  0  0  0  0  0  0
    3.3846    2.7000   -1.3252 C   0  0  0  0  0  0  0  0  0  0  0  0
    3.8977    1.5973   -2.2027 C   0  0  0  0  0  0  0  0  0  0  0  0
    3.9630    1.7676   -3.4109 O   0  0  0  0  0  0  0  0  0  0  0  0
    4.3547    0.2917   -1.6082 C   0  0  0  0  0  0  0  0  0  0  0  0
    3.4348   -0.8778   -2.0143 C   0  0  0  0  0  0  0  0  0  0  0  0
    4.0114   -1.7241   -3.1665 C   0  0  0  0  0  0  0  0  0  0  0  0
    4.7854   -2.9754   -2.7010 C   0  0  0  0  0  0  0  0  0  0  0  0
    6.1600   -2.6765   -2.0688 C   0  0  0  0  0  0  0  0  0  0  0  0
    6.1000   -2.6168   -0.5311 C   0  0  0  0  0  0  0  0  0  0  0  0
    7.4392   -2.1981    0.0953 C   0  0  0  0  0  0  0  0  0  0  0  0
    7.6724   -0.6788    0.0129 C   0  0  0  0  0  0  0  0  0  0  0  0
    8.9663   -0.2402    0.7303 C   0  0  0  0  0  0  0  0  0  0  0  0
   10.1329    0.0643   -0.2286 C   0  0  0  0  0  0  0  0  0  0  0  0
   10.6598   -1.1493   -1.0174 C   0  0  0  0  0  0  0  0  0  0  0  0
   11.2567   -2.2725   -0.1502 C   0  0  0  0  0  0  0  0  0  0  0  0
   12.5030   -1.8345    0.6178 C   0  0  0  0  0  0  0  0  0  0  0  0
   -7.5478   -1.2915   -0.6836 C   0  0  1  0  0  0  0  0  0  0  0  0
   -6.9769   -2.5728   -0.4864 O   0  0  0  0  0  0  0  0  0  0  0  0
   -5.3091   -2.5294   -0.8582 P   0  0  0  0  0  5  0  0  0  0  0  0
   -5.0678   -1.9920   -2.4457 O   0  0  0  0  0  0  0  0  0  0  0  0
   -4.6730   -4.0889   -0.7030 O   0  0  0  0  0  0  0  0  0  0  0  0
   -4.5849   -1.6115    0.0988 O   0  0  0  0  0  0  0  0  0  0  0  0
   -9.0298   -1.4193   -0.9428 C   0  0  1  0  0  0  0  0  0  0  0  0
   -9.3758   -2.5738   -1.6730 O   0  0  0  0  0  0  0  0  0  0  0  0
  -11.3860    0.4264    0.3718 C   0  0  0  0  0  0  0  0  0  0  0  0
  -10.6158    1.5411    0.3758 N   0  0  0  0  0  0  0  0  0  0  0  0
  -11.2409    2.7532    0.2836 C   0  0  0  0  0  0  0  0  0  0  0  0
  -12.6076    2.8255    0.1847 N   0  0  0  0  0  0  0  0  0  0  0  0
  -15.3983    0.9365    0.0525 H   0  0  0  0  0  0  0  0  0  0  0  0
  -15.2604    2.7281   -0.0114 H   0  0  0  0  0  0  0  0  0  0  0  0
  -12.1804   -2.6389    0.3501 H   0  0  0  0  0  0  0  0  0  0  0  0
   -9.6362   -2.4058    0.9054 H   0  0  0  0  0  0  0  0  0  0  0  0
   -6.7674   -0.9066    1.3280 H   0  0  0  0  0  0  0  0  0  0  0  0
   -7.9513    1.4176   -0.2978 H   0  0  0  0  0  0  0  0  0  0  0  0
   -7.2567    1.5126    1.3793 H   0  0  0  0  0  0  0  0  0  0  0  0
   -7.2567    3.9274    0.1963 H   0  0  0  0  0  0  0  0  0  0  0  0
   -5.2531    1.0676    3.0645 H   0  0  0  0  0  0  0  0  0  0  0  0
   -1.3644    0.8679    1.9820 H   0  0  0  0  0  0  0  0  0  0  0  0
   -2.5670   -0.2401    1.2113 H   0  0  0  0  0  0  0  0  0  0  0  0
   -0.5083    2.3598   -0.6813 H   0  0  0  0  0  0  0  0  0  0  0  0
    0.8430    1.2379   -1.0484 H   0  0  0  0  0  0  0  0  0  0  0  0
    0.5601    1.7973    0.6438 H   0  0  0  0  0  0  0  0  0  0  0  0
   -2.3355   -0.8527   -1.2627 H   0  0  0  0  0  0  0  0  0  0  0  0
   -0.8845   -0.3160   -2.1831 H   0  0  0  0  0  0  0  0  0  0  0  0
   -2.1658    0.8668   -1.7481 H   0  0  0  0  0  0  0  0  0  0  0  0
    0.7788   -1.0995   -0.4491 H   0  0  0  0  0  0  0  0  0  0  0  0
   -1.4324   -2.1450    1.0144 H   0  0  0  0  0  0  0  0  0  0  0  0
    2.4425    0.1044    0.8187 H   0  0  0  0  0  0  0  0  0  0  0  0
    2.9673   -1.1993    3.3278 H   0  0  0  0  0  0  0  0  0  0  0  0
    2.1680    0.3615    3.7223 H   0  0  0  0  0  0  0  0  0  0  0  0
    4.6951    0.0202    1.9685 H   0  0  0  0  0  0  0  0  0  0  0  0
    4.7001    0.4708    3.7034 H   0  0  0  0  0  0  0  0  0  0  0  0
    5.8375    2.1039    1.3583 H   0  0  0  0  0  0  0  0  0  0  0  0
    6.1225    4.4198    1.2968 H   0  0  0  0  0  0  0  0  0  0  0  0
    4.8270    4.5998    2.5207 H   0  0  0  0  0  0  0  0  0  0  0  0
    4.2010    5.7331    0.4288 H   0  0  0  0  0  0  0  0  0  0  0  0
    3.0851    4.3655    0.6935 H   0  0  0  0  0  0  0  0  0  0  0  0
    2.4632    3.1351   -1.7661 H   0  0  0  0  0  0  0  0  0  0  0  0
    3.1245    2.2912   -0.3281 H   0  0  0  0  0  0  0  0  0  0  0  0
    4.3726    0.3699   -0.5020 H   0  0  0  0  0  0  0  0  0  0  0  0
    5.4035    0.1176   -1.9172 H   0  0  0  0  0  0  0  0  0  0  0  0
    2.4402   -0.4834   -2.3213 H   0  0  0  0  0  0  0  0  0  0  0  0
    3.2317   -1.5233   -1.1332 H   0  0  0  0  0  0  0  0  0  0  0  0
    4.6419   -1.1064   -3.8430 H   0  0  0  0  0  0  0  0  0  0  0  0
    3.1564   -2.0811   -3.7817 H   0  0  0  0  0  0  0  0  0  0  0  0
    4.9594   -3.6023   -3.6031 H   0  0  0  0  0  0  0  0  0  0  0  0
    4.1552   -3.5857   -2.0172 H   0  0  0  0  0  0  0  0  0  0  0  0
    6.5887   -1.7493   -2.4989 H   0  0  0  0  0  0  0  0  0  0  0  0
    6.8569   -3.4982   -2.3456 H   0  0  0  0  0  0  0  0  0  0  0  0
    5.3023   -1.9323   -0.1834 H   0  0  0  0  0  0  0  0  0  0  0  0
    5.8414   -3.6307   -0.1544 H   0  0  0  0  0  0  0  0  0  0  0  0
    7.4233   -2.4945    1.1670 H   0  0  0  0  0  0  0  0  0  0  0  0
    8.2670   -2.7528   -0.3915 H   0  0  0  0  0  0  0  0  0  0  0  0
    7.6857   -0.3430   -1.0449 H   0  0  0  0  0  0  0  0  0  0  0  0
    6.8140   -0.1696    0.5030 H   0  0  0  0  0  0  0  0  0  0  0  0
    8.7474    0.7022    1.2792 H   0  0  0  0  0  0  0  0  0  0  0  0
    9.2747   -0.9725    1.5059 H   0  0  0  0  0  0  0  0  0  0  0  0
    9.8031    0.8379   -0.9560 H   0  0  0  0  0  0  0  0  0  0  0  0
   10.9638    0.5208    0.3492 H   0  0  0  0  0  0  0  0  0  0  0  0
   11.4415   -0.7933   -1.7235 H   0  0  0  0  0  0  0  0  0  0  0  0
    9.8443   -1.5660   -1.6446 H   0  0  0  0  0  0  0  0  0  0  0  0
   10.5036   -2.6689    0.5610 H   0  0  0  0  0  0  0  0  0  0  0  0
   11.5409   -3.1113   -0.8219 H   0  0  0  0  0  0  0  0  0  0  0  0
   12.9722   -2.7204    1.0952 H   0  0  0  0  0  0  0  0  0  0  0  0
   12.2363   -1.1143    1.4188 H   0  0  0  0  0  0  0  0  0  0  0  0
   13.2419   -1.3706   -0.0696 H   0  0  0  0  0  0  0  0  0  0  0  0
   -7.0949   -0.7418   -1.5429 H   0  0  0  0  0  0  0  0  0  0  0  0
   -5.6245   -2.5931   -3.0020 H   0  0  0  0  0  0  0  0  0  0  0  0
   -5.2225   -4.6462   -1.3099 H   0  0  0  0  0  0  0  0  0  0  0  0
   -9.3709   -0.5256   -1.5131 H   0  0  0  0  0  0  0  0  0  0  0  0
   -9.2288   -3.3704   -1.0998 H   0  0  0  0  0  0  0  0  0  0  0  0
  -10.6536    3.6610    0.2865 H   0  0  0  0  0  0  0  0  0  0  0  0
  1  2  1  0
  2  3  2  0
  3  4  1  0
  4  5  2  0
  5  6  1  0
  6  7  1  0
  7  8  1  0
  8  9  1  0
  9 10  1  0
 10 11  1  0
 11 12  1  0
 12 13  1  0
 12 14  2  0
 12 15  1  0
 15 16  1  0
 16 17  1  0
 16 18  2  0
 16 19  1  0
 19 20  1  0
 20 21  1  0
 21 22  1  0
 21 23  1  0
 21 24  1  0
 24 25  1  0
 24 26  1  0
 26 27  2  0
 26 28  1  0
 28 29  1  0
 29 30  1  0
 30 31  1  0
 31 32  2  0
 31 33  1  0
 33 34  1  0
 34 35  1  0
 35 36  1  0
 36 37  1  0
 37 38  1  0
 38 39  2  0
 38 40  1  0
 40 41  1  0
 41 42  1  0
 42 43  1  0
 43 44  1  0
 44 45  1  0
 45 46  1  0
 46 47  1  0
 47 48  1  0
 48 49  1  0
 49 50  1  0
 50 51  1  0
 51 52  1  0
  9 53  1  0
 53 54  1  0
 54 55  1  0
 55 56  1  0
 55 57  1  0
 55 58  2  0
 53 59  1  0
 59 60  1  0
  6 61  1  0
 61 62  2  0
 62 63  1  0
 63 64  2  0
 64  2  1  0
 61  3  1  0
 59  7  1  0
  1 65  1  0
  1 66  1  0
  5 67  1  0
  7 68  1  1
  9 69  1  1
 10 70  1  0
 10 71  1  0
 13 72  1  0
 17 73  1  0
 20 74  1  0
 20 75  1  0
 22 76  1  0
 22 77  1  0
 22 78  1  0
 23 79  1  0
 23 80  1  0
 23 81  1  0
 24 82  1  6
 25 83  1  0
 28 84  1  0
 29 85  1  0
 29 86  1  0
 30 87  1  0
 30 88  1  0
 33 89  1  0
 34 90  1  0
 34 91  1  0
 35 92  1  0
 35 93  1  0
 37 94  1  0
 37 95  1  0
 40 96  1  0
 40 97  1  0
 41 98  1  0
 41 99  1  0
 42100  1  0
 42101  1  0
 43102  1  0
 43103  1  0
 44104  1  0
 44105  1  0
 45106  1  0
 45107  1  0
 46108  1  0
 46109  1  0
 47110  1  0
 47111  1  0
 48112  1  0
 48113  1  0
 49114  1  0
 49115  1  0
 50116  1  0
 50117  1  0
 51118  1  0
 51119  1  0
 52120  1  0
 52121  1  0
 52122  1  0
 53123  1  6
 56124  1  0
 57125  1  0
 59126  1  6
 60127  1  0
 63128  1  0
M  END
$$$$
