
     RDKit          3D

 40 44  0  0  0  0  0  0  0  0999 V2000
    1.0859    1.7231    0.9904 C   0  0  2  0  0  0  0  0  0  0  0  0
    2.3491    1.0445    0.9660 O   0  0  0  0  0  0  0  0  0  0  0  0
    2.2005   -0.2362    0.4779 C   0  0  0  0  0  0  0  0  0  0  0  0
    3.2149   -1.1155    0.1027 C   0  0  0  0  0  0  0  0  0  0  0  0
    4.5455   -0.8231    0.3897 O   0  0  0  0  0  0  0  0  0  0  0  0
    2.8537   -2.2805   -0.6039 C   0  0  0  0  0  0  0  0  0  0  0  0
    1.5118   -2.4864   -0.9884 C   0  0  0  0  0  0  0  0  0  0  0  0
    0.5151   -1.5739   -0.5905 C   0  0  0  0  0  0  0  0  0  0  0  0
    0.8887   -0.5266    0.2565 C   0  0  0  0  0  0  0  0  0  0  0  0
    0.0120    0.6002    0.7091 C   0  0  1  0  0  0  0  0  0  0  0  0
   -0.7633    0.1880    1.9993 C   0  0  0  0  0  0  0  0  0  0  0  0
   -2.2400   -0.1681    1.7344 C   0  0  0  0  0  0  0  0  0  0  0  0
   -2.3991   -0.9832    0.5119 N   0  0  0  0  0  0  0  0  0  0  0  0
   -3.8183   -1.3023    0.2911 C   0  0  0  0  0  0  0  0  0  0  0  0
   -1.7642   -0.4231   -0.7188 C   0  0  2  0  0  0  0  0  0  0  0  0
   -0.8273   -1.5276   -1.2853 C   0  0  0  0  0  0  0  0  0  0  0  0
   -0.9821    0.9040   -0.4349 C   0  0  2  0  0  0  0  0  0  0  0  0
   -0.2535    1.4615   -1.6389 C   0  0  0  0  0  0  0  0  0  0  0  0
    0.7246    2.3605   -1.4571 C   0  0  0  0  0  0  0  0  0  0  0  0
    1.0455    2.8648   -0.0637 C   0  0  2  0  0  0  0  0  0  0  0  0
    2.2350    3.6134   -0.0532 O   0  0  0  0  0  0  0  0  0  0  0  0
    0.9622    2.1827    1.9944 H   0  0  0  0  0  0  0  0  0  0  0  0
    5.2939   -1.4469    0.1115 H   0  0  0  0  0  0  0  0  0  0  0  0
    3.6153   -2.9795   -0.9248 H   0  0  0  0  0  0  0  0  0  0  0  0
    1.2640   -3.3131   -1.6422 H   0  0  0  0  0  0  0  0  0  0  0  0
   -0.2665   -0.6736    2.4994 H   0  0  0  0  0  0  0  0  0  0  0  0
   -0.7650    1.0162    2.7396 H   0  0  0  0  0  0  0  0  0  0  0  0
   -2.6208   -0.7337    2.6134 H   0  0  0  0  0  0  0  0  0  0  0  0
   -2.8424    0.7656    1.6595 H   0  0  0  0  0  0  0  0  0  0  0  0
   -3.9239   -1.9921   -0.5738 H   0  0  0  0  0  0  0  0  0  0  0  0
   -4.4064   -0.3785    0.0948 H   0  0  0  0  0  0  0  0  0  0  0  0
   -4.2395   -1.8210    1.1791 H   0  0  0  0  0  0  0  0  0  0  0  0
   -2.5288   -0.1924   -1.4973 H   0  0  0  0  0  0  0  0  0  0  0  0
   -1.3181   -2.5223   -1.2113 H   0  0  0  0  0  0  0  0  0  0  0  0
   -0.6518   -1.3311   -2.3649 H   0  0  0  0  0  0  0  0  0  0  0  0
   -1.6959    1.6931   -0.1102 H   0  0  0  0  0  0  0  0  0  0  0  0
   -0.4721    1.0986   -2.6384 H   0  0  0  0  0  0  0  0  0  0  0  0
    1.2891    2.7200   -2.3123 H   0  0  0  0  0  0  0  0  0  0  0  0
    0.2188    3.5496    0.2253 H   0  0  0  0  0  0  0  0  0  0  0  0
    2.9535    3.0449   -0.4361 H   0  0  0  0  0  0  0  0  0  0  0  0
  1  2  1  0
  2  3  1  0
  3  4  2  0
  4  5  1  0
  4  6  1  0
  6  7  2  0
  7  8  1  0
  8  9  2  0
  9 10  1  0
 10 11  1  1
 11 12  1  0
 12 13  1  0
 13 14  1  0
 13 15  1  0
 15 16  1  0
 15 17  1  0
 17 18  1  0
 18 19  2  0
 19 20  1  0
 20 21  1  0
 10  1  1  0
 17 10  1  0
 20  1  1  0
  9  3  1  0
 16  8  1  0
  1 22  1  1
  5 23  1  0
  6 24  1  0
  7 25  1  0
 11 26  1  0
 11 27  1  0
 12 28  1  0
 12 29  1  0
 14 30  1  0
 14 31  1  0
 14 32  1  0
 15 33  1  6
 16 34  1  0
 16 35  1  0
 17 36  1  1
 18 37  1  0
 19 38  1  0
 20 39  1  1
 21 40  1  0
M  END
$$$$
