
     RDKit          3D

 27 29  0  0  0  0  0  0  0  0999 V2000
    5.7560   -1.0169    0.2745 Cl  0  0  0  0  0  0  0  0  0  0  0  0
    4.1312   -0.3565    0.2506 C   0  0  0  0  0  0  0  0  0  0  0  0
    3.9361    1.0257    0.3311 C   0  0  0  0  0  0  0  0  0  0  0  0
    2.6419    1.5546    0.3122 C   0  0  0  0  0  0  0  0  0  0  0  0
    1.5274    0.7042    0.2124 C   0  0  0  0  0  0  0  0  0  0  0  0
    1.7341   -0.6869    0.1317 C   0  0  0  0  0  0  0  0  0  0  0  0
    3.0296   -1.2116    0.1509 C   0  0  0  0  0  0  0  0  0  0  0  0
    0.1327    1.2896    0.1930 C   0  0  0  0  0  0  0  0  0  0  0  0
   -0.6352    0.8658   -1.0305 C   0  0  0  0  0  0  0  0  0  0  0  0
   -0.3073    1.1394   -2.2155 O   0  0  0  0  0  0  0  0  0  0  0  0
   -1.8210    0.1093   -0.6510 C   0  0  0  0  0  0  0  0  0  0  0  0
   -2.7984   -0.4737   -1.4582 C   0  0  0  0  0  0  0  0  0  0  0  0
   -3.8534   -1.1605   -0.8333 C   0  0  0  0  0  0  0  0  0  0  0  0
   -3.9107   -1.2505    0.5728 C   0  0  0  0  0  0  0  0  0  0  0  0
   -2.9133   -0.6544    1.3635 C   0  0  0  0  0  0  0  0  0  0  0  0
   -1.8768    0.0216    0.7189 C   0  0  0  0  0  0  0  0  0  0  0  0
   -0.7296    0.7175    1.2864 C   0  0  0  0  0  0  0  0  0  0  0  0
   -0.5001    0.8363    2.5192 O   0  0  0  0  0  0  0  0  0  0  0  0
    4.7863    1.6914    0.4084 H   0  0  0  0  0  0  0  0  0  0  0  0
    2.5107    2.6276    0.3756 H   0  0  0  0  0  0  0  0  0  0  0  0
    0.8923   -1.3637    0.0541 H   0  0  0  0  0  0  0  0  0  0  0  0
    3.1756   -2.2824    0.0883 H   0  0  0  0  0  0  0  0  0  0  0  0
    0.1405    2.3990    0.2644 H   0  0  0  0  0  0  0  0  0  0  0  0
   -2.7469   -0.4009   -2.5368 H   0  0  0  0  0  0  0  0  0  0  0  0
   -4.6255   -1.6228   -1.4345 H   0  0  0  0  0  0  0  0  0  0  0  0
   -4.7265   -1.7815    1.0457 H   0  0  0  0  0  0  0  0  0  0  0  0
   -2.9498   -0.7197    2.4432 H   0  0  0  0  0  0  0  0  0  0  0  0
  1  2  1  0
  2  3  2  0
  3  4  1  0
  4  5  2  0
  5  6  1  0
  6  7  2  0
  5  8  1  0
  8  9  1  0
  9 10  2  0
  9 11  1  0
 11 12  2  0
 12 13  1  0
 13 14  2  0
 14 15  1  0
 15 16  2  0
 16 17  1  0
 17 18  2  0
  7  2  1  0
 17  8  1  0
 16 11  1  0
  3 19  1  0
  4 20  1  0
  6 21  1  0
  7 22  1  0
  8 23  1  0
 12 24  1  0
 13 25  1  0
 14 26  1  0
 15 27  1  0
M  END
$$$$
