
     RDKit          3D

 67 69  0  0  0  0  0  0  0  0999 V2000
   -5.1198    0.9478    0.8243 C   0  0  1  0  0  0  0  0  0  0  0  0
   -5.6108    0.3011    2.1287 C   0  0  0  0  0  0  0  0  0  0  0  0
   -4.9354    0.8435    3.2314 O   0  0  0  0  0  0  0  0  0  0  0  0
   -3.7019    0.7877    0.7520 O   0  0  0  0  0  0  0  0  0  0  0  0
   -3.1996    0.4339   -0.5296 C   0  0  2  0  0  0  0  0  0  0  0  0
   -1.8009    0.6517   -0.5576 O   0  0  0  0  0  0  0  0  0  0  0  0
   -1.0922   -0.3587    0.1464 C   0  0  2  0  0  0  0  0  0  0  0  0
    0.0159    0.3093    0.9982 C   0  0  1  0  0  0  0  0  0  0  0  0
   -0.5758    1.2217    2.0841 C   0  0  0  0  0  0  0  0  0  0  0  0
   -1.1911    0.4671    3.0951 O   0  0  0  0  0  0  0  0  0  0  0  0
    0.8371   -0.6621    1.6321 O   0  0  0  0  0  0  0  0  0  0  0  0
    1.5350   -1.4643    0.6932 C   0  0  2  0  0  0  0  0  0  0  0  0
    2.3717   -0.6505   -0.1227 O   0  0  0  0  0  0  0  0  0  0  0  0
    3.6890   -1.1646   -0.2400 C   0  0  2  0  0  0  0  0  0  0  0  0
    4.5562   -0.6595    0.9506 C   0  0  1  0  0  0  0  0  0  0  0  0
    5.7074   -1.6187    1.3030 C   0  0  0  0  0  0  0  0  0  0  0  0
    5.2197   -2.8880    1.6479 O   0  0  0  0  0  0  0  0  0  0  0  0
    5.1042    0.6830    0.7259 N   0  0  0  0  0  0  0  0  0  0  0  0
    5.1186    1.3431   -0.3964 C   0  0  0  0  0  0  0  0  0  0  0  0
    5.7125    2.6447   -0.4317 N   0  0  0  0  0  0  0  0  0  0  0  0
    6.2881    3.1748    0.6744 O   0  0  0  0  0  0  0  0  0  0  0  0
    4.4375    0.8186   -1.6369 C   0  0  2  0  0  0  0  0  0  0  0  0
    3.1795    1.4284   -1.7728 O   0  0  0  0  0  0  0  0  0  0  0  0
    4.2655   -0.7096   -1.5926 C   0  0  1  0  0  0  0  0  0  0  0  0
    5.4963   -1.3447   -1.8286 O   0  0  0  0  0  0  0  0  0  0  0  0
    0.5457   -2.2680   -0.1704 C   0  0  2  0  0  0  0  0  0  0  0  0
    1.2526   -3.0238   -1.1197 O   0  0  0  0  0  0  0  0  0  0  0  0
   -0.4373   -1.3132   -0.8743 C   0  0  1  0  0  0  0  0  0  0  0  0
   -1.4106   -2.0353   -1.5873 O   0  0  0  0  0  0  0  0  0  0  0  0
   -3.8455    1.2796   -1.6435 C   0  0  2  0  0  0  0  0  0  0  0  0
   -3.6246    2.6457   -1.3914 O   0  0  0  0  0  0  0  0  0  0  0  0
   -5.3692    1.0068   -1.7059 C   0  0  1  0  0  0  0  0  0  0  0  0
   -5.6875    0.1790   -2.7977 O   0  0  0  0  0  0  0  0  0  0  0  0
   -5.9087    0.3912   -0.3916 C   0  0  2  0  0  0  0  0  0  0  0  0
   -7.2738    0.6940   -0.2534 O   0  0  0  0  0  0  0  0  0  0  0  0
   -5.3310    2.0386    0.8910 H   0  0  0  0  0  0  0  0  0  0  0  0
   -6.7087    0.4421    2.2522 H   0  0  0  0  0  0  0  0  0  0  0  0
   -5.4101   -0.7912    2.0963 H   0  0  0  0  0  0  0  0  0  0  0  0
   -5.3198    1.7461    3.3843 H   0  0  0  0  0  0  0  0  0  0  0  0
   -3.4276   -0.6377   -0.7383 H   0  0  0  0  0  0  0  0  0  0  0  0
   -1.7361   -0.9578    0.8363 H   0  0  0  0  0  0  0  0  0  0  0  0
    0.6284    0.9684    0.3401 H   0  0  0  0  0  0  0  0  0  0  0  0
   -1.2838    1.9616    1.6443 H   0  0  0  0  0  0  0  0  0  0  0  0
    0.2511    1.8034    2.5444 H   0  0  0  0  0  0  0  0  0  0  0  0
   -2.1428    0.3595    2.8394 H   0  0  0  0  0  0  0  0  0  0  0  0
    2.1133   -2.2032    1.2974 H   0  0  0  0  0  0  0  0  0  0  0  0
    3.6794   -2.2801   -0.2712 H   0  0  0  0  0  0  0  0  0  0  0  0
    3.9123   -0.5999    1.8548 H   0  0  0  0  0  0  0  0  0  0  0  0
    6.4056   -1.7227    0.4487 H   0  0  0  0  0  0  0  0  0  0  0  0
    6.2959   -1.1999    2.1514 H   0  0  0  0  0  0  0  0  0  0  0  0
    4.8157   -2.8023    2.5508 H   0  0  0  0  0  0  0  0  0  0  0  0
    5.6920    3.2067   -1.3121 H   0  0  0  0  0  0  0  0  0  0  0  0
    7.2401    2.9040    0.6197 H   0  0  0  0  0  0  0  0  0  0  0  0
    5.0639    1.0692   -2.5249 H   0  0  0  0  0  0  0  0  0  0  0  0
    3.3378    2.3510   -2.1043 H   0  0  0  0  0  0  0  0  0  0  0  0
    3.5452   -1.0135   -2.3896 H   0  0  0  0  0  0  0  0  0  0  0  0
    5.6737   -1.2800   -2.8034 H   0  0  0  0  0  0  0  0  0  0  0  0
   -0.0206   -2.9488    0.5092 H   0  0  0  0  0  0  0  0  0  0  0  0
    0.6477   -3.7531   -1.4158 H   0  0  0  0  0  0  0  0  0  0  0  0
    0.1330   -0.7027   -1.6101 H   0  0  0  0  0  0  0  0  0  0  0  0
   -1.9010   -2.6036   -0.9371 H   0  0  0  0  0  0  0  0  0  0  0  0
   -3.3849    1.0047   -2.6226 H   0  0  0  0  0  0  0  0  0  0  0  0
   -2.7012    2.8520   -1.6923 H   0  0  0  0  0  0  0  0  0  0  0  0
   -5.8878    1.9775   -1.8731 H   0  0  0  0  0  0  0  0  0  0  0  0
   -5.1884   -0.6723   -2.6851 H   0  0  0  0  0  0  0  0  0  0  0  0
   -5.7764   -0.7169   -0.4079 H   0  0  0  0  0  0  0  0  0  0  0  0
   -7.7621    0.1093   -0.8901 H   0  0  0  0  0  0  0  0  0  0  0  0
  1  2  1  0
  2  3  1  0
  1  4  1  0
  4  5  1  0
  5  6  1  0
  6  7  1  0
  7  8  1  0
  8  9  1  0
  9 10  1  0
  8 11  1  0
 11 12  1  0
 12 13  1  0
 13 14  1  0
 14 15  1  0
 15 16  1  0
 16 17  1  0
 15 18  1  0
 18 19  2  0
 19 20  1  0
 20 21  1  0
 19 22  1  0
 22 23  1  0
 22 24  1  0
 24 25  1  0
 12 26  1  0
 26 27  1  0
 26 28  1  0
 28 29  1  0
  5 30  1  0
 30 31  1  0
 30 32  1  0
 32 33  1  0
 32 34  1  0
 34 35  1  0
 34  1  1  0
 28  7  1  0
 24 14  1  0
  1 36  1  1
  2 37  1  0
  2 38  1  0
  3 39  1  0
  5 40  1  6
  7 41  1  1
  8 42  1  6
  9 43  1  0
  9 44  1  0
 10 45  1  0
 12 46  1  1
 14 47  1  6
 15 48  1  1
 16 49  1  0
 16 50  1  0
 17 51  1  0
 20 52  1  0
 21 53  1  0
 22 54  1  6
 23 55  1  0
 24 56  1  6
 25 57  1  0
 26 58  1  1
 27 59  1  0
 28 60  1  6
 29 61  1  0
 30 62  1  6
 31 63  1  0
 32 64  1  6
 33 65  1  0
 34 66  1  6
 35 67  1  0
M  END
$$$$
