
     RDKit          3D

 39 40  0  0  0  0  0  0  0  0999 V2000
   -4.3876    1.3376    0.3685 C   0  0  0  0  0  0  0  0  0  0  0  0
   -3.9105   -0.0302    0.8976 C   0  0  0  0  0  0  0  0  0  0  0  0
   -2.8656    0.1894    2.0089 C   0  0  0  0  0  0  0  0  0  0  0  0
   -5.1156   -0.7853    1.4935 C   0  0  0  0  0  0  0  0  0  0  0  0
   -3.3202   -0.8707   -0.2654 C   0  0  0  0  0  0  0  0  0  0  0  0
   -2.2695   -0.1807   -0.9498 O   0  0  0  0  0  0  0  0  0  0  0  0
   -0.8933   -0.2303   -0.6576 C   0  0  0  0  0  0  0  0  0  0  0  0
   -0.0394    0.6752   -1.3098 C   0  0  0  0  0  0  0  0  0  0  0  0
    1.3379    0.6645   -1.0526 C   0  0  0  0  0  0  0  0  0  0  0  0
    1.8904   -0.2559   -0.1434 C   0  0  0  0  0  0  0  0  0  0  0  0
    1.0333   -1.1581    0.5074 C   0  0  0  0  0  0  0  0  0  0  0  0
   -0.3399   -1.1512    0.2524 C   0  0  0  0  0  0  0  0  0  0  0  0
    3.3061   -0.2781    0.1357 N   0  0  0  0  0  0  0  0  0  0  0  0
    4.2887    0.3141   -0.5780 C   0  0  0  0  0  0  0  0  0  0  0  0
    5.4919    0.0306    0.0324 C   0  0  0  0  0  0  0  0  0  0  0  0
    5.1734   -0.7494    1.1248 C   0  0  0  0  0  0  0  0  0  0  0  0
    3.8386   -0.9248    1.1643 N   0  0  0  0  0  0  0  0  0  0  0  0
    6.8304    0.4558   -0.3931 C   0  0  0  0  0  0  0  0  0  0  0  0
    7.9480    0.0719    0.3414 O   0  0  0  0  0  0  0  0  0  0  0  0
    6.9707    1.1686   -1.4228 O   0  0  0  0  0  0  0  0  0  0  0  0
   -0.5746    1.6372   -2.2412 C   0  0  0  0  0  0  0  0  0  0  0  0
   -1.0048    2.4093   -2.9882 N   0  0  0  0  0  0  0  0  0  0  0  0
   -4.8532    1.9325    1.1840 H   0  0  0  0  0  0  0  0  0  0  0  0
   -5.1396    1.2047   -0.4390 H   0  0  0  0  0  0  0  0  0  0  0  0
   -3.5358    1.9227   -0.0403 H   0  0  0  0  0  0  0  0  0  0  0  0
   -3.3171    0.7347    2.8659 H   0  0  0  0  0  0  0  0  0  0  0  0
   -2.0118    0.7955    1.6408 H   0  0  0  0  0  0  0  0  0  0  0  0
   -2.4816   -0.7831    2.3842 H   0  0  0  0  0  0  0  0  0  0  0  0
   -5.8989   -0.9480    0.7218 H   0  0  0  0  0  0  0  0  0  0  0  0
   -5.5684   -0.2090    2.3293 H   0  0  0  0  0  0  0  0  0  0  0  0
   -4.8008   -1.7769    1.8850 H   0  0  0  0  0  0  0  0  0  0  0  0
   -4.1257   -1.0542   -1.0091 H   0  0  0  0  0  0  0  0  0  0  0  0
   -3.0006   -1.8762    0.0747 H   0  0  0  0  0  0  0  0  0  0  0  0
    1.9674    1.3880   -1.5527 H   0  0  0  0  0  0  0  0  0  0  0  0
    1.4283   -1.8795    1.2113 H   0  0  0  0  0  0  0  0  0  0  0  0
   -0.9507   -1.8712    0.7737 H   0  0  0  0  0  0  0  0  0  0  0  0
    4.1564    0.8901   -1.4836 H   0  0  0  0  0  0  0  0  0  0  0  0
    5.8655   -1.1676    1.8437 H   0  0  0  0  0  0  0  0  0  0  0  0
    8.8782    0.3578    0.0600 H   0  0  0  0  0  0  0  0  0  0  0  0
  1  2  1  0
  2  3  1  0
  2  4  1  0
  2  5  1  0
  5  6  1  0
  6  7  1  0
  7  8  2  0
  8  9  1  0
  9 10  2  0
 10 11  1  0
 11 12  2  0
 10 13  1  0
 13 14  1  0
 14 15  2  0
 15 16  1  0
 16 17  2  0
 15 18  1  0
 18 19  1  0
 18 20  2  0
  8 21  1  0
 21 22  3  0
 12  7  1  0
 17 13  1  0
  1 23  1  0
  1 24  1  0
  1 25  1  0
  3 26  1  0
  3 27  1  0
  3 28  1  0
  4 29  1  0
  4 30  1  0
  4 31  1  0
  5 32  1  0
  5 33  1  0
  9 34  1  0
 11 35  1  0
 12 36  1  0
 14 37  1  0
 16 38  1  0
 19 39  1  0
M  END
$$$$
