
     RDKit          3D

 36 35  0  0  0  0  0  0  0  0999 V2000
    0.9638   -2.5326    0.9308 O   0  0  0  0  0  0  0  0  0  0  0  0
    2.0036   -2.2011    0.0684 C   0  0  0  0  0  0  0  0  0  0  0  0
    3.1260   -2.7609    0.1892 O   0  0  0  0  0  0  0  0  0  0  0  0
    1.7855   -1.1733   -0.9976 C   0  0  0  0  0  0  0  0  0  0  0  0
    1.5082    0.1457   -0.3912 N   0  0  0  0  0  0  0  0  0  0  0  0
    0.7791    1.0345   -1.3323 C   0  0  0  0  0  0  0  0  0  0  0  0
   -0.5936    1.3875   -0.7518 C   0  0  0  0  0  0  0  0  0  0  0  0
   -1.3486    0.1635   -0.3901 N   0  0  0  0  0  0  0  0  0  0  0  0
   -2.0967   -0.3537   -1.5570 C   0  0  0  0  0  0  0  0  0  0  0  0
   -2.4557   -1.7938   -1.3552 C   0  0  0  0  0  0  0  0  0  0  0  0
   -3.7915   -2.1679   -1.2488 O   0  0  0  0  0  0  0  0  0  0  0  0
   -1.5495   -2.6653   -1.2737 O   0  0  0  0  0  0  0  0  0  0  0  0
   -2.2667    0.4299    0.7399 C   0  0  0  0  0  0  0  0  0  0  0  0
   -1.5087    0.4640    2.0305 C   0  0  0  0  0  0  0  0  0  0  0  0
   -1.4475    1.6410    2.7697 O   0  0  0  0  0  0  0  0  0  0  0  0
   -0.9228   -0.5715    2.4450 O   0  0  0  0  0  0  0  0  0  0  0  0
    2.7513    0.7729    0.1083 C   0  0  0  0  0  0  0  0  0  0  0  0
    2.4277    1.8620    1.0829 C   0  0  0  0  0  0  0  0  0  0  0  0
    1.8701    1.5413    2.3162 O   0  0  0  0  0  0  0  0  0  0  0  0
    2.6417    3.0665    0.7816 O   0  0  0  0  0  0  0  0  0  0  0  0
    1.0940   -3.2224    1.6611 H   0  0  0  0  0  0  0  0  0  0  0  0
    0.9158   -1.5228   -1.5953 H   0  0  0  0  0  0  0  0  0  0  0  0
    2.6631   -1.1206   -1.6818 H   0  0  0  0  0  0  0  0  0  0  0  0
    1.3235    1.9883   -1.5173 H   0  0  0  0  0  0  0  0  0  0  0  0
    0.6530    0.5801   -2.3399 H   0  0  0  0  0  0  0  0  0  0  0  0
   -1.1609    2.0143   -1.4773 H   0  0  0  0  0  0  0  0  0  0  0  0
   -0.4112    2.0262    0.1414 H   0  0  0  0  0  0  0  0  0  0  0  0
   -3.0164    0.2478   -1.7384 H   0  0  0  0  0  0  0  0  0  0  0  0
   -1.4817   -0.2985   -2.4808 H   0  0  0  0  0  0  0  0  0  0  0  0
   -4.0496   -3.1371   -1.1070 H   0  0  0  0  0  0  0  0  0  0  0  0
   -2.8151    1.3879    0.5904 H   0  0  0  0  0  0  0  0  0  0  0  0
   -3.0298   -0.3734    0.8341 H   0  0  0  0  0  0  0  0  0  0  0  0
   -0.9379    1.6790    3.6443 H   0  0  0  0  0  0  0  0  0  0  0  0
    3.3662    1.1661   -0.7332 H   0  0  0  0  0  0  0  0  0  0  0  0
    3.3761    0.0309    0.6510 H   0  0  0  0  0  0  0  0  0  0  0  0
    1.6355    2.2658    2.9840 H   0  0  0  0  0  0  0  0  0  0  0  0
  1  2  1  0
  2  3  2  0
  2  4  1  0
  4  5  1  0
  5  6  1  0
  6  7  1  0
  7  8  1  0
  8  9  1  0
  9 10  1  0
 10 11  1  0
 10 12  2  0
  8 13  1  0
 13 14  1  0
 14 15  1  0
 14 16  2  0
  5 17  1  0
 17 18  1  0
 18 19  1  0
 18 20  2  0
  1 21  1  0
  4 22  1  0
  4 23  1  0
  6 24  1  0
  6 25  1  0
  7 26  1  0
  7 27  1  0
  9 28  1  0
  9 29  1  0
 11 30  1  0
 13 31  1  0
 13 32  1  0
 15 33  1  0
 17 34  1  0
 17 35  1  0
 19 36  1  0
M  END
$$$$
