
     RDKit          3D

 48 49  0  0  0  0  0  0  0  0999 V2000
   -2.9230    3.5379   -0.2417 C   0  0  0  0  0  0  0  0  0  0  0  0
   -2.7699    2.0874   -0.4054 N   0  0  0  0  0  0  0  0  0  0  0  0
   -3.9696    1.2455   -0.5554 C   0  0  0  0  0  0  0  0  0  0  0  0
   -4.0723    0.2399    0.6018 C   0  0  0  0  0  0  0  0  0  0  0  0
   -5.3849   -0.5586    0.5804 C   0  0  0  0  0  0  0  0  0  0  0  0
   -5.4357   -1.5751   -0.5674 C   0  0  0  0  0  0  0  0  0  0  0  0
   -6.6741   -2.4086   -0.4707 C   0  0  0  0  0  0  0  0  0  0  0  0
   -7.8580   -1.9595   -1.0473 O   0  0  0  0  0  0  0  0  0  0  0  0
   -6.6558   -3.4962    0.1654 O   0  0  0  0  0  0  0  0  0  0  0  0
   -1.4444    1.5045   -0.3922 C   0  0  0  0  0  0  0  0  0  0  0  0
   -1.1226    0.4209   -1.2296 C   0  0  0  0  0  0  0  0  0  0  0  0
    0.1567   -0.1408   -1.2076 C   0  0  0  0  0  0  0  0  0  0  0  0
    1.1499    0.3721   -0.3602 C   0  0  0  0  0  0  0  0  0  0  0  0
    2.4892   -0.2659   -0.3629 C   0  0  0  0  0  0  0  0  0  0  0  0
    3.6075    0.3607    0.0347 C   0  0  0  0  0  0  0  0  0  0  0  0
    4.9496   -0.2711    0.0144 C   0  0  0  0  0  0  0  0  0  0  0  0
    5.1280   -1.6665    0.0737 C   0  0  0  0  0  0  0  0  0  0  0  0
    6.4127   -2.2178    0.0656 C   0  0  0  0  0  0  0  0  0  0  0  0
    7.5469   -1.3891    0.0077 C   0  0  0  0  0  0  0  0  0  0  0  0
    7.3677    0.0033   -0.0341 C   0  0  0  0  0  0  0  0  0  0  0  0
    6.0835    0.5549   -0.0249 C   0  0  0  0  0  0  0  0  0  0  0  0
    8.8708   -1.9540   -0.0015 N   0  0  0  0  0  4  0  0  0  0  0  0
    9.9785   -1.1390   -0.0543 O   0  0  0  0  0  1  0  0  0  0  0  0
    9.0359   -3.1911    0.0363 O   0  0  0  0  0  0  0  0  0  0  0  0
    0.8277    1.4468    0.4892 C   0  0  0  0  0  0  0  0  0  0  0  0
   -0.4520    2.0083    0.4678 C   0  0  0  0  0  0  0  0  0  0  0  0
   -2.7989    3.8118    0.8266 H   0  0  0  0  0  0  0  0  0  0  0  0
   -3.9233    3.8830   -0.5777 H   0  0  0  0  0  0  0  0  0  0  0  0
   -2.1630    4.0706   -0.8521 H   0  0  0  0  0  0  0  0  0  0  0  0
   -4.8885    1.8711   -0.5592 H   0  0  0  0  0  0  0  0  0  0  0  0
   -3.9403    0.7229   -1.5321 H   0  0  0  0  0  0  0  0  0  0  0  0
   -4.0226    0.8017    1.5601 H   0  0  0  0  0  0  0  0  0  0  0  0
   -3.2104   -0.4614    0.5800 H   0  0  0  0  0  0  0  0  0  0  0  0
   -6.2499    0.1372    0.5102 H   0  0  0  0  0  0  0  0  0  0  0  0
   -5.4695   -1.1041    1.5464 H   0  0  0  0  0  0  0  0  0  0  0  0
   -5.4398   -1.0505   -1.5456 H   0  0  0  0  0  0  0  0  0  0  0  0
   -4.5424   -2.2363   -0.5302 H   0  0  0  0  0  0  0  0  0  0  0  0
   -8.7092   -2.5042   -0.9770 H   0  0  0  0  0  0  0  0  0  0  0  0
   -1.8509    0.0107   -1.9143 H   0  0  0  0  0  0  0  0  0  0  0  0
    0.3750   -0.9734   -1.8656 H   0  0  0  0  0  0  0  0  0  0  0  0
    2.5561   -1.2646   -0.7739 H   0  0  0  0  0  0  0  0  0  0  0  0
    3.5597    1.4022    0.3243 H   0  0  0  0  0  0  0  0  0  0  0  0
    4.2836   -2.3374    0.1514 H   0  0  0  0  0  0  0  0  0  0  0  0
    6.5186   -3.2942    0.1121 H   0  0  0  0  0  0  0  0  0  0  0  0
    8.2206    0.6684   -0.0729 H   0  0  0  0  0  0  0  0  0  0  0  0
    5.9754    1.6324   -0.0579 H   0  0  0  0  0  0  0  0  0  0  0  0
    1.5481    1.8418    1.1922 H   0  0  0  0  0  0  0  0  0  0  0  0
   -0.6705    2.8238    1.1440 H   0  0  0  0  0  0  0  0  0  0  0  0
  1  2  1  0
  2  3  1  0
  3  4  1  0
  4  5  1  0
  5  6  1  0
  6  7  1  0
  7  8  1  0
  7  9  2  0
  2 10  1  0
 10 11  2  0
 11 12  1  0
 12 13  2  0
 13 14  1  0
 14 15  2  0
 15 16  1  0
 16 17  2  0
 17 18  1  0
 18 19  2  0
 19 20  1  0
 20 21  2  0
 19 22  1  0
 22 23  1  0
 22 24  2  0
 13 25  1  0
 25 26  2  0
 26 10  1  0
 21 16  1  0
  1 27  1  0
  1 28  1  0
  1 29  1  0
  3 30  1  0
  3 31  1  0
  4 32  1  0
  4 33  1  0
  5 34  1  0
  5 35  1  0
  6 36  1  0
  6 37  1  0
  8 38  1  0
 11 39  1  0
 12 40  1  0
 14 41  1  0
 15 42  1  0
 17 43  1  0
 18 44  1  0
 20 45  1  0
 21 46  1  0
 25 47  1  0
 26 48  1  0
M  CHG  2  22   1  23  -1
M  END
$$$$
