
     RDKit          3D

 22 23  0  0  0  0  0  0  0  0999 V2000
    3.6704    0.3401   -0.6560 N   0  0  0  0  0  0  0  0  0  0  0  0
    2.3378   -0.1121   -0.3989 C   0  0  0  0  0  0  0  0  0  0  0  0
    2.0750   -1.4815   -0.2748 C   0  0  0  0  0  0  0  0  0  0  0  0
    0.7778   -1.9291   -0.0242 C   0  0  0  0  0  0  0  0  0  0  0  0
   -0.2705   -1.0129    0.1050 C   0  0  0  0  0  0  0  0  0  0  0  0
   -1.5265   -1.4659    0.3488 N   0  0  0  0  0  0  0  0  0  0  0  0
   -2.5682   -0.6082    0.4802 C   0  0  0  0  0  0  0  0  0  0  0  0
   -3.8777   -1.1104    0.7361 N   0  0  0  0  0  0  0  0  0  0  0  0
   -2.3637    0.7286    0.3681 N   0  0  0  0  0  0  0  0  0  0  0  0
   -1.1320    1.2515    0.1245 C   0  0  0  0  0  0  0  0  0  0  0  0
   -1.0139    2.6764    0.0223 N   0  0  0  0  0  0  0  0  0  0  0  0
   -0.0262    0.3763   -0.0170 C   0  0  0  0  0  0  0  0  0  0  0  0
    1.2914    0.8143   -0.2706 C   0  0  0  0  0  0  0  0  0  0  0  0
    4.4567   -0.3406   -0.7532 H   0  0  0  0  0  0  0  0  0  0  0  0
    3.8818    1.3585   -0.7510 H   0  0  0  0  0  0  0  0  0  0  0  0
    2.8769   -2.2026   -0.3725 H   0  0  0  0  0  0  0  0  0  0  0  0
    0.5885   -2.9915    0.0695 H   0  0  0  0  0  0  0  0  0  0  0  0
   -4.0421   -2.1378    0.8235 H   0  0  0  0  0  0  0  0  0  0  0  0
   -4.6844   -0.4554    0.8384 H   0  0  0  0  0  0  0  0  0  0  0  0
   -0.1179    3.1729   -0.1615 H   0  0  0  0  0  0  0  0  0  0  0  0
   -1.8662    3.2691    0.1361 H   0  0  0  0  0  0  0  0  0  0  0  0
    1.5330    1.8602   -0.3725 H   0  0  0  0  0  0  0  0  0  0  0  0
  1  2  1  0
  2  3  2  0
  3  4  1  0
  4  5  2  0
  5  6  1  0
  6  7  2  0
  7  8  1  0
  7  9  1  0
  9 10  2  0
 10 11  1  0
 10 12  1  0
 12 13  2  0
 13  2  1  0
 12  5  1  0
  1 14  1  0
  1 15  1  0
  3 16  1  0
  4 17  1  0
  8 18  1  0
  8 19  1  0
 11 20  1  0
 11 21  1  0
 13 22  1  0
M  END
$$$$
