
     RDKit          3D

 41 44  0  0  0  0  0  0  0  0999 V2000
    4.9201   -0.0147   -0.1826 C   0  0  0  0  0  0  0  0  0  0  0  0
    3.4735    0.1085    0.0510 N   0  0  0  0  0  0  0  0  0  0  0  0
    2.8190   -1.2062   -0.0469 C   0  0  0  0  0  0  0  0  0  0  0  0
    1.3993   -1.0948    0.5109 C   0  0  0  0  0  0  0  0  0  0  0  0
    0.6782    0.1247   -0.0332 C   0  0  0  0  0  0  0  0  0  0  0  0
    1.3727    0.8747   -1.1563 C   0  0  0  0  0  0  0  0  0  0  0  0
    2.8761    1.1003   -0.8764 C   0  0  0  0  0  0  0  0  0  0  0  0
   -0.6041    0.3901    0.3391 C   0  0  0  0  0  0  0  0  0  0  0  0
   -1.3900    1.5151   -0.2190 C   0  0  0  0  0  0  0  0  0  0  0  0
   -2.6420    1.3626   -0.8263 C   0  0  0  0  0  0  0  0  0  0  0  0
   -3.2348    2.8939   -1.1944 S   0  0  0  0  0  0  0  0  0  0  0  0
   -1.9379    3.7630   -0.5747 C   0  0  0  0  0  0  0  0  0  0  0  0
   -1.0180    2.8614   -0.0586 C   0  0  0  0  0  0  0  0  0  0  0  0
   -3.3746    0.1008   -1.0694 C   0  0  0  0  0  0  0  0  0  0  0  0
   -4.5221    0.1457   -1.5886 O   0  0  0  0  0  0  0  0  0  0  0  0
   -2.7818   -1.2375   -0.7250 C   0  0  0  0  0  0  0  0  0  0  0  0
   -2.4134   -1.2996    0.7380 C   0  0  0  0  0  0  0  0  0  0  0  0
   -3.1443   -2.1170    1.6165 C   0  0  0  0  0  0  0  0  0  0  0  0
   -2.8199   -2.1608    2.9749 C   0  0  0  0  0  0  0  0  0  0  0  0
   -1.7735   -1.3811    3.4714 C   0  0  0  0  0  0  0  0  0  0  0  0
   -1.0449   -0.5570    2.6110 C   0  0  0  0  0  0  0  0  0  0  0  0
   -1.3474   -0.5212    1.2407 C   0  0  0  0  0  0  0  0  0  0  0  0
    5.4039    0.9843   -0.1225 H   0  0  0  0  0  0  0  0  0  0  0  0
    5.1289   -0.4611   -1.1805 H   0  0  0  0  0  0  0  0  0  0  0  0
    5.3795   -0.6520    0.6031 H   0  0  0  0  0  0  0  0  0  0  0  0
    3.3687   -1.9643    0.5548 H   0  0  0  0  0  0  0  0  0  0  0  0
    2.7937   -1.5586   -1.1037 H   0  0  0  0  0  0  0  0  0  0  0  0
    0.8332   -2.0176    0.2585 H   0  0  0  0  0  0  0  0  0  0  0  0
    1.4751   -1.0123    1.6157 H   0  0  0  0  0  0  0  0  0  0  0  0
    0.9149    1.8520   -1.3948 H   0  0  0  0  0  0  0  0  0  0  0  0
    1.2709    0.2572   -2.0752 H   0  0  0  0  0  0  0  0  0  0  0  0
    3.4071    1.1119   -1.8561 H   0  0  0  0  0  0  0  0  0  0  0  0
    3.0005    2.1085   -0.4248 H   0  0  0  0  0  0  0  0  0  0  0  0
   -1.8446    4.8403   -0.5574 H   0  0  0  0  0  0  0  0  0  0  0  0
   -0.1059    3.1734    0.4341 H   0  0  0  0  0  0  0  0  0  0  0  0
   -1.8765   -1.4070   -1.3467 H   0  0  0  0  0  0  0  0  0  0  0  0
   -3.5015   -2.0455   -0.9827 H   0  0  0  0  0  0  0  0  0  0  0  0
   -3.9675   -2.7187    1.2518 H   0  0  0  0  0  0  0  0  0  0  0  0
   -3.3864   -2.7940    3.6454 H   0  0  0  0  0  0  0  0  0  0  0  0
   -1.5327   -1.4085    4.5262 H   0  0  0  0  0  0  0  0  0  0  0  0
   -0.2515    0.0611    3.0131 H   0  0  0  0  0  0  0  0  0  0  0  0
  1  2  1  0
  2  3  1  0
  3  4  1  0
  4  5  1  0
  5  6  1  0
  6  7  1  0
  5  8  2  3
  8  9  1  0
  9 10  2  0
 10 11  1  0
 11 12  1  0
 12 13  2  0
 10 14  1  0
 14 15  2  0
 14 16  1  0
 16 17  1  0
 17 18  2  0
 18 19  1  0
 19 20  2  0
 20 21  1  0
 21 22  2  0
  7  2  1  0
 22  8  1  0
 13  9  1  0
 22 17  1  0
  1 23  1  0
  1 24  1  0
  1 25  1  0
  3 26  1  0
  3 27  1  0
  4 28  1  0
  4 29  1  0
  6 30  1  0
  6 31  1  0
  7 32  1  0
  7 33  1  0
 12 34  1  0
 13 35  1  0
 16 36  1  0
 16 37  1  0
 18 38  1  0
 19 39  1  0
 20 40  1  0
 21 41  1  0
M  END
$$$$
