
     RDKit          3D

 39 39  0  0  0  0  0  0  0  0999 V2000
    1.9225   -2.4905    0.5673 O   0  0  0  0  0  0  0  0  0  0  0  0
    1.0419   -1.3959    0.5514 C   0  0  2  0  0  0  0  0  0  0  0  0
   -0.0963   -1.6692   -0.4464 C   0  0  2  0  0  0  0  0  0  0  0  0
    0.4425   -1.8230   -1.7361 O   0  0  0  0  0  0  0  0  0  0  0  0
   -1.1597   -0.5284   -0.4341 C   0  0  1  0  0  0  0  0  0  0  0  0
   -2.2227   -0.8901    0.4305 O   0  0  0  0  0  0  0  0  0  0  0  0
   -3.5534   -1.4671   -0.4723 P   0  0  0  0  0  5  0  0  0  0  0  0
   -4.7148   -2.0796    0.5947 O   0  0  0  0  0  0  0  0  0  0  0  0
   -3.0623   -2.6946   -1.5299 O   0  0  0  0  0  0  0  0  0  0  0  0
   -4.1598   -0.3317   -1.2664 O   0  0  0  0  0  0  0  0  0  0  0  0
   -0.5873    0.8286    0.0565 C   0  0  2  0  0  0  0  0  0  0  0  0
   -1.3668    1.8767   -0.4967 O   0  0  0  0  0  0  0  0  0  0  0  0
   -2.1472    2.7619    0.7383 P   0  0  0  0  0  5  0  0  0  0  0  0
   -3.1006    1.7316    1.6843 O   0  0  0  0  0  0  0  0  0  0  0  0
   -3.1331    3.9399    0.0292 O   0  0  0  0  0  0  0  0  0  0  0  0
   -1.1161    3.4391    1.6135 O   0  0  0  0  0  0  0  0  0  0  0  0
    0.8713    0.9986   -0.4049 C   0  0  1  0  0  0  0  0  0  0  0  0
    1.3232    2.2805   -0.0506 O   0  0  0  0  0  0  0  0  0  0  0  0
    1.8018   -0.0787    0.2206 C   0  0  2  0  0  0  0  0  0  0  0  0
    2.8452   -0.3540   -0.7012 O   0  0  0  0  0  0  0  0  0  0  0  0
    4.3653    0.0445   -0.0303 P   0  0  0  0  0  5  0  0  0  0  0  0
    5.5585   -0.1942   -1.2062 O   0  0  0  0  0  0  0  0  0  0  0  0
    4.3808    1.6655    0.4588 O   0  0  0  0  0  0  0  0  0  0  0  0
    4.6526   -0.8464    1.1579 O   0  0  0  0  0  0  0  0  0  0  0  0
    2.4333   -2.4344    1.4167 H   0  0  0  0  0  0  0  0  0  0  0  0
    0.5741   -1.2977    1.5608 H   0  0  0  0  0  0  0  0  0  0  0  0
   -0.5807   -2.6272   -0.1423 H   0  0  0  0  0  0  0  0  0  0  0  0
   -0.2406   -2.2969   -2.2788 H   0  0  0  0  0  0  0  0  0  0  0  0
   -1.4914   -0.3601   -1.4884 H   0  0  0  0  0  0  0  0  0  0  0  0
   -5.4203   -2.4569    0.0108 H   0  0  0  0  0  0  0  0  0  0  0  0
   -2.8418   -3.4603   -0.9420 H   0  0  0  0  0  0  0  0  0  0  0  0
   -0.5697    0.8178    1.1745 H   0  0  0  0  0  0  0  0  0  0  0  0
   -3.8335    1.4453    1.0832 H   0  0  0  0  0  0  0  0  0  0  0  0
   -3.6133    4.3578    0.7880 H   0  0  0  0  0  0  0  0  0  0  0  0
    0.8803    0.8982   -1.5178 H   0  0  0  0  0  0  0  0  0  0  0  0
    2.0685    2.5032   -0.6672 H   0  0  0  0  0  0  0  0  0  0  0  0
    2.1577    0.3171    1.2034 H   0  0  0  0  0  0  0  0  0  0  0  0
    6.4067    0.0618   -0.7634 H   0  0  0  0  0  0  0  0  0  0  0  0
    5.2851    1.8088    0.8361 H   0  0  0  0  0  0  0  0  0  0  0  0
  1  2  1  0
  2  3  1  0
  3  4  1  0
  3  5  1  0
  5  6  1  0
  6  7  1  0
  7  8  1  0
  7  9  1  0
  7 10  2  0
  5 11  1  0
 11 12  1  0
 12 13  1  0
 13 14  1  0
 13 15  1  0
 13 16  2  0
 11 17  1  0
 17 18  1  0
 17 19  1  0
 19 20  1  0
 20 21  1  0
 21 22  1  0
 21 23  1  0
 21 24  2  0
 19  2  1  0
  1 25  1  0
  2 26  1  1
  3 27  1  1
  4 28  1  0
  5 29  1  6
  8 30  1  0
  9 31  1  0
 11 32  1  1
 14 33  1  0
 15 34  1  0
 17 35  1  6
 18 36  1  0
 19 37  1  1
 22 38  1  0
 23 39  1  0
M  END
$$$$
