
     RDKit          3D

 60 62  0  0  0  0  0  0  0  0999 V2000
   -4.0479    0.4312    0.3558 C   0  0  1  0  0  0  0  0  0  0  0  0
   -3.9481   -0.1596   -0.9833 N   0  0  0  0  0  0  0  0  0  0  0  0
   -3.0206    1.5687    0.5038 C   0  0  0  0  0  0  0  0  0  0  0  0
   -1.6084    1.0655    0.3497 C   0  0  0  0  0  0  0  0  0  0  0  0
   -1.1549    0.2715    1.2182 O   0  0  0  0  0  0  0  0  0  0  0  0
   -0.7707    1.4728   -0.7520 N   0  0  0  0  0  0  0  0  0  0  0  0
   -1.2848    2.0468   -1.9856 C   0  0  0  0  0  0  0  0  0  0  0  0
   -0.1792    1.8751   -3.0157 C   0  0  0  0  0  0  0  0  0  0  0  0
    1.0995    1.6422   -2.2199 C   0  0  0  0  0  0  0  0  0  0  0  0
    0.6526    1.1600   -0.8330 C   0  0  1  0  0  0  0  0  0  0  0  0
    1.4371    1.8614    0.2946 C   0  0  0  0  0  0  0  0  0  0  0  0
    2.8695    1.5869    0.1838 N   0  0  0  0  0  0  0  0  0  0  0  0
    3.4416    0.3214    0.5558 C   0  0  0  0  0  0  0  0  0  0  0  0
    2.6865   -0.6183    0.9285 O   0  0  0  0  0  0  0  0  0  0  0  0
    4.9052    0.0923    0.4946 C   0  0  0  0  0  0  0  0  0  0  0  0
    5.8161    1.1551    0.6379 C   0  0  0  0  0  0  0  0  0  0  0  0
    7.1924    0.9182    0.5878 C   0  0  0  0  0  0  0  0  0  0  0  0
    7.6764   -0.3772    0.3978 C   0  0  0  0  0  0  0  0  0  0  0  0
    6.7842   -1.4469    0.2569 C   0  0  0  0  0  0  0  0  0  0  0  0
    5.4035   -1.2116    0.3164 C   0  0  0  0  0  0  0  0  0  0  0  0
    7.3916   -3.0852    0.0402 S   0  0  0  0  0  6  0  0  0  0  0  0
    7.5262   -3.8788    1.6256 C   0  0  0  0  0  0  0  0  0  0  0  0
    8.7423   -3.0474   -0.6182 O   0  0  0  0  0  0  0  0  0  0  0  0
    6.4503   -3.8642   -0.8351 O   0  0  0  0  0  0  0  0  0  0  0  0
   -5.4735    0.9579    0.6378 C   0  0  0  0  0  0  0  0  0  0  0  0
   -6.4920   -0.1533    0.6398 C   0  0  0  0  0  0  0  0  0  0  0  0
   -7.2841   -0.3956   -0.4954 C   0  0  0  0  0  0  0  0  0  0  0  0
   -8.2092   -1.4457   -0.4986 C   0  0  0  0  0  0  0  0  0  0  0  0
   -9.1948   -1.7421   -1.9191 Cl  0  0  0  0  0  0  0  0  0  0  0  0
   -8.3449   -2.2615    0.6294 C   0  0  0  0  0  0  0  0  0  0  0  0
   -7.5553   -2.0304    1.7589 C   0  0  0  0  0  0  0  0  0  0  0  0
   -6.6297   -0.9827    1.7650 C   0  0  0  0  0  0  0  0  0  0  0  0
   -3.8073   -0.3505    1.1122 H   0  0  0  0  0  0  0  0  0  0  0  0
   -4.3864    0.4816   -1.6842 H   0  0  0  0  0  0  0  0  0  0  0  0
   -4.4796   -1.0599   -1.0001 H   0  0  0  0  0  0  0  0  0  0  0  0
   -3.1122    2.0169    1.5171 H   0  0  0  0  0  0  0  0  0  0  0  0
   -3.2411    2.3760   -0.2254 H   0  0  0  0  0  0  0  0  0  0  0  0
   -1.5092    3.1240   -1.8293 H   0  0  0  0  0  0  0  0  0  0  0  0
   -2.1980    1.5124   -2.3219 H   0  0  0  0  0  0  0  0  0  0  0  0
   -0.3906    0.9817   -3.6440 H   0  0  0  0  0  0  0  0  0  0  0  0
   -0.0941    2.7692   -3.6709 H   0  0  0  0  0  0  0  0  0  0  0  0
    1.7471    0.8869   -2.7163 H   0  0  0  0  0  0  0  0  0  0  0  0
    1.6588    2.6024   -2.1575 H   0  0  0  0  0  0  0  0  0  0  0  0
    0.7827    0.0576   -0.7647 H   0  0  0  0  0  0  0  0  0  0  0  0
    1.0782    1.5303    1.2916 H   0  0  0  0  0  0  0  0  0  0  0  0
    1.2675    2.9591    0.2338 H   0  0  0  0  0  0  0  0  0  0  0  0
    3.4783    2.3452   -0.1956 H   0  0  0  0  0  0  0  0  0  0  0  0
    5.4740    2.1650    0.8183 H   0  0  0  0  0  0  0  0  0  0  0  0
    7.8860    1.7407    0.7060 H   0  0  0  0  0  0  0  0  0  0  0  0
    8.7453   -0.5457    0.3690 H   0  0  0  0  0  0  0  0  0  0  0  0
    4.7187   -2.0448    0.2149 H   0  0  0  0  0  0  0  0  0  0  0  0
    8.2257   -3.3059    2.2687 H   0  0  0  0  0  0  0  0  0  0  0  0
    7.9087   -4.9118    1.4932 H   0  0  0  0  0  0  0  0  0  0  0  0
    6.5278   -3.9141    2.1084 H   0  0  0  0  0  0  0  0  0  0  0  0
   -5.4937    1.4574    1.6316 H   0  0  0  0  0  0  0  0  0  0  0  0
   -5.7479    1.7322   -0.1125 H   0  0  0  0  0  0  0  0  0  0  0  0
   -7.1793    0.2265   -1.3759 H   0  0  0  0  0  0  0  0  0  0  0  0
   -9.0587   -3.0755    0.6307 H   0  0  0  0  0  0  0  0  0  0  0  0
   -7.6586   -2.6652    2.6294 H   0  0  0  0  0  0  0  0  0  0  0  0
   -6.0191   -0.8183    2.6443 H   0  0  0  0  0  0  0  0  0  0  0  0
  1  2  1  0
  1  3  1  0
  3  4  1  0
  4  5  2  0
  4  6  1  0
  6  7  1  0
  7  8  1  0
  8  9  1  0
  9 10  1  0
 10 11  1  0
 11 12  1  0
 12 13  1  0
 13 14  2  0
 13 15  1  0
 15 16  2  0
 16 17  1  0
 17 18  2  0
 18 19  1  0
 19 20  2  0
 19 21  1  0
 21 22  1  0
 21 23  2  0
 21 24  2  0
  1 25  1  0
 25 26  1  0
 26 27  2  0
 27 28  1  0
 28 29  1  0
 28 30  2  0
 30 31  1  0
 31 32  2  0
 10  6  1  0
 20 15  1  0
 32 26  1  0
  1 33  1  1
  2 34  1  0
  2 35  1  0
  3 36  1  0
  3 37  1  0
  7 38  1  0
  7 39  1  0
  8 40  1  0
  8 41  1  0
  9 42  1  0
  9 43  1  0
 10 44  1  6
 11 45  1  0
 11 46  1  0
 12 47  1  0
 16 48  1  0
 17 49  1  0
 18 50  1  0
 20 51  1  0
 22 52  1  0
 22 53  1  0
 22 54  1  0
 25 55  1  0
 25 56  1  0
 27 57  1  0
 30 58  1  0
 31 59  1  0
 32 60  1  0
M  END
$$$$
