
     RDKit          3D

 52 54  0  0  0  0  0  0  0  0999 V2000
    3.6449    0.2672    4.0444 O   0  0  0  0  0  0  0  0  0  0  0  0
    4.7976    0.0513    3.2959 C   0  0  0  0  0  0  0  0  0  0  0  0
    5.7216   -0.6717    3.7555 O   0  0  0  0  0  0  0  0  0  0  0  0
    4.9126    0.6322    1.9268 C   0  0  0  0  0  0  0  0  0  0  0  0
    4.3123   -0.2528    1.0074 O   0  0  0  0  0  0  0  0  0  0  0  0
    4.4167    0.2752   -0.2987 C   0  0  0  0  0  0  0  0  0  0  0  0
    3.6646   -0.6305   -1.2918 C   0  0  0  0  0  0  0  0  0  0  0  0
    2.1910   -0.4820   -1.2846 N   0  0  0  0  0  0  0  0  0  0  0  0
    1.7248    0.7895   -1.8698 C   0  0  0  0  0  0  0  0  0  0  0  0
    0.1991    0.7605   -2.0122 C   0  0  0  0  0  0  0  0  0  0  0  0
   -0.4192    0.5142   -0.6937 N   0  0  0  0  0  0  0  0  0  0  0  0
    0.0508   -0.7711   -0.1318 C   0  0  0  0  0  0  0  0  0  0  0  0
    1.5706   -0.7281    0.0295 C   0  0  0  0  0  0  0  0  0  0  0  0
   -1.8996    0.6746   -0.7173 C   0  0  2  0  0  0  0  0  0  0  0  0
   -2.4656    1.0016    0.6644 C   0  0  0  0  0  0  0  0  0  0  0  0
   -3.8621    1.0183    0.8625 C   0  0  0  0  0  0  0  0  0  0  0  0
   -4.4037    1.3684    2.1024 C   0  0  0  0  0  0  0  0  0  0  0  0
   -3.5644    1.7378    3.1541 C   0  0  0  0  0  0  0  0  0  0  0  0
   -2.1825    1.7729    2.9631 C   0  0  0  0  0  0  0  0  0  0  0  0
   -1.6347    1.4240    1.7251 C   0  0  0  0  0  0  0  0  0  0  0  0
   -2.6053   -0.5018   -1.3931 C   0  0  0  0  0  0  0  0  0  0  0  0
   -2.9039   -0.4393   -2.7662 C   0  0  0  0  0  0  0  0  0  0  0  0
   -3.5318   -1.5116   -3.4063 C   0  0  0  0  0  0  0  0  0  0  0  0
   -3.8677   -2.6605   -2.6848 C   0  0  0  0  0  0  0  0  0  0  0  0
   -4.6548   -4.0049   -3.4907 Cl  0  0  0  0  0  0  0  0  0  0  0  0
   -3.5739   -2.7373   -1.3207 C   0  0  0  0  0  0  0  0  0  0  0  0
   -2.9456   -1.6677   -0.6771 C   0  0  0  0  0  0  0  0  0  0  0  0
    3.5423   -0.1356    4.9682 H   0  0  0  0  0  0  0  0  0  0  0  0
    4.3945    1.6180    1.9238 H   0  0  0  0  0  0  0  0  0  0  0  0
    5.9902    0.7844    1.6880 H   0  0  0  0  0  0  0  0  0  0  0  0
    4.0290    1.3150   -0.3568 H   0  0  0  0  0  0  0  0  0  0  0  0
    5.4874    0.2915   -0.6050 H   0  0  0  0  0  0  0  0  0  0  0  0
    4.0458   -0.4259   -2.3165 H   0  0  0  0  0  0  0  0  0  0  0  0
    3.9232   -1.6912   -1.0810 H   0  0  0  0  0  0  0  0  0  0  0  0
    2.1712    0.9343   -2.8777 H   0  0  0  0  0  0  0  0  0  0  0  0
    2.0050    1.6533   -1.2292 H   0  0  0  0  0  0  0  0  0  0  0  0
   -0.0887   -0.0327   -2.7377 H   0  0  0  0  0  0  0  0  0  0  0  0
   -0.1291    1.7435   -2.4153 H   0  0  0  0  0  0  0  0  0  0  0  0
   -0.4054   -0.9523    0.8645 H   0  0  0  0  0  0  0  0  0  0  0  0
   -0.2101   -1.6198   -0.8025 H   0  0  0  0  0  0  0  0  0  0  0  0
    1.9159   -1.7026    0.4391 H   0  0  0  0  0  0  0  0  0  0  0  0
    1.8277    0.0803    0.7495 H   0  0  0  0  0  0  0  0  0  0  0  0
   -2.1378    1.5880   -1.3085 H   0  0  0  0  0  0  0  0  0  0  0  0
   -4.5359    0.7604    0.0551 H   0  0  0  0  0  0  0  0  0  0  0  0
   -5.4767    1.3618    2.2447 H   0  0  0  0  0  0  0  0  0  0  0  0
   -3.9858    2.0116    4.1127 H   0  0  0  0  0  0  0  0  0  0  0  0
   -1.5339    2.0809    3.7731 H   0  0  0  0  0  0  0  0  0  0  0  0
   -0.5618    1.4923    1.6051 H   0  0  0  0  0  0  0  0  0  0  0  0
   -2.6481    0.4404   -3.3436 H   0  0  0  0  0  0  0  0  0  0  0  0
   -3.7554   -1.4484   -4.4636 H   0  0  0  0  0  0  0  0  0  0  0  0
   -3.8304   -3.6258   -0.7579 H   0  0  0  0  0  0  0  0  0  0  0  0
   -2.7248   -1.7498    0.3793 H   0  0  0  0  0  0  0  0  0  0  0  0
  1  2  1  0
  2  3  2  0
  2  4  1  0
  4  5  1  0
  5  6  1  0
  6  7  1  0
  7  8  1  0
  8  9  1  0
  9 10  1  0
 10 11  1  0
 11 12  1  0
 12 13  1  0
 11 14  1  0
 14 15  1  0
 15 16  2  0
 16 17  1  0
 17 18  2  0
 18 19  1  0
 19 20  2  0
 14 21  1  0
 21 22  2  0
 22 23  1  0
 23 24  2  0
 24 25  1  0
 24 26  1  0
 26 27  2  0
 13  8  1  0
 20 15  1  0
 27 21  1  0
  1 28  1  0
  4 29  1  0
  4 30  1  0
  6 31  1  0
  6 32  1  0
  7 33  1  0
  7 34  1  0
  9 35  1  0
  9 36  1  0
 10 37  1  0
 10 38  1  0
 12 39  1  0
 12 40  1  0
 13 41  1  0
 13 42  1  0
 14 43  1  6
 16 44  1  0
 17 45  1  0
 18 46  1  0
 19 47  1  0
 20 48  1  0
 22 49  1  0
 23 50  1  0
 26 51  1  0
 27 52  1  0
M  END
$$$$
