
     RDKit          3D

 41 43  0  0  0  0  0  0  0  0999 V2000
    0.4512   -0.3361    0.8703 C   0  0  1  0  0  0  0  0  0  0  0  0
    0.2322   -1.6657    1.2787 O   0  0  0  0  0  0  0  0  0  0  0  0
    1.9765   -0.1006    0.5817 C   0  0  1  0  0  0  0  0  0  0  0  0
    2.4880   -0.6249   -0.7747 C   0  0  0  0  0  0  0  0  0  0  0  0
    3.9918   -0.3638   -0.8898 C   0  0  0  0  0  0  0  0  0  0  0  0
    4.2762    1.1444   -0.8535 C   0  0  0  0  0  0  0  0  0  0  0  0
    3.4874    1.8683    0.2123 C   0  0  0  0  0  0  0  0  0  0  0  0
    2.3924    1.3452    0.7916 C   0  0  0  0  0  0  0  0  0  0  0  0
   -0.6052    0.0910   -0.2263 C   0  0  1  0  0  0  0  0  0  0  0  0
   -0.6338   -0.9113   -1.2919 N   0  0  0  0  0  0  0  0  0  0  0  0
   -1.7794   -1.7237   -1.1645 C   0  0  0  0  0  0  0  0  0  0  0  0
   -1.9690   -2.7472   -1.8737 O   0  0  0  0  0  0  0  0  0  0  0  0
   -2.7019   -1.2663   -0.0986 C   0  0  2  0  0  0  0  0  0  0  0  0
   -4.0655   -0.9289   -0.6284 C   0  0  0  0  0  0  0  0  0  0  0  0
   -3.9103    0.5052   -1.0769 C   0  0  0  0  0  0  0  0  0  0  0  0
   -2.8562    1.1066   -0.3598 O   0  0  0  0  0  0  0  0  0  0  0  0
   -2.1095    0.0954    0.3047 C   0  0  2  0  0  0  0  0  0  0  0  0
   -2.2822    0.3371    1.8182 C   0  0  0  0  0  0  0  0  0  0  0  0
   -0.2496    1.4564   -0.7838 C   0  0  0  0  0  0  0  0  0  0  0  0
   -0.0761    1.6306   -1.9803 O   0  0  0  0  0  0  0  0  0  0  0  0
    0.2591    0.2824    1.7695 H   0  0  0  0  0  0  0  0  0  0  0  0
    0.5401   -2.2639    0.5510 H   0  0  0  0  0  0  0  0  0  0  0  0
    2.5231   -0.6714    1.3664 H   0  0  0  0  0  0  0  0  0  0  0  0
    2.2989   -1.7148   -0.8701 H   0  0  0  0  0  0  0  0  0  0  0  0
    1.9941   -0.0910   -1.6106 H   0  0  0  0  0  0  0  0  0  0  0  0
    4.5280   -0.8679   -0.0556 H   0  0  0  0  0  0  0  0  0  0  0  0
    4.3716   -0.7872   -1.8447 H   0  0  0  0  0  0  0  0  0  0  0  0
    4.0167    1.5885   -1.8386 H   0  0  0  0  0  0  0  0  0  0  0  0
    5.3609    1.3085   -0.6796 H   0  0  0  0  0  0  0  0  0  0  0  0
    3.7548    2.8967    0.4357 H   0  0  0  0  0  0  0  0  0  0  0  0
    1.8585    1.9519    1.5173 H   0  0  0  0  0  0  0  0  0  0  0  0
    0.0962   -1.0792   -2.0163 H   0  0  0  0  0  0  0  0  0  0  0  0
   -2.7361   -2.0111    0.7273 H   0  0  0  0  0  0  0  0  0  0  0  0
   -4.3918   -1.5933   -1.4587 H   0  0  0  0  0  0  0  0  0  0  0  0
   -4.8073   -0.9838    0.1986 H   0  0  0  0  0  0  0  0  0  0  0  0
   -3.6700    0.5384   -2.1619 H   0  0  0  0  0  0  0  0  0  0  0  0
   -4.8510    1.0700   -0.9044 H   0  0  0  0  0  0  0  0  0  0  0  0
   -1.8172    1.3034    2.1073 H   0  0  0  0  0  0  0  0  0  0  0  0
   -1.8431   -0.4856    2.4202 H   0  0  0  0  0  0  0  0  0  0  0  0
   -3.3629    0.3927    2.0705 H   0  0  0  0  0  0  0  0  0  0  0  0
   -0.1798    2.3048   -0.1107 H   0  0  0  0  0  0  0  0  0  0  0  0
  1  2  1  0
  1  3  1  0
  3  4  1  0
  4  5  1  0
  5  6  1  0
  6  7  1  0
  7  8  2  0
  1  9  1  0
  9 10  1  0
 10 11  1  0
 11 12  2  0
 11 13  1  0
 13 14  1  0
 14 15  1  0
 15 16  1  0
 16 17  1  0
 17 18  1  1
  9 19  1  6
 19 20  2  0
  8  3  1  0
 17  9  1  0
 17 13  1  0
  1 21  1  1
  2 22  1  0
  3 23  1  1
  4 24  1  0
  4 25  1  0
  5 26  1  0
  5 27  1  0
  6 28  1  0
  6 29  1  0
  7 30  1  0
  8 31  1  0
 10 32  1  0
 13 33  1  1
 14 34  1  0
 14 35  1  0
 15 36  1  0
 15 37  1  0
 18 38  1  0
 18 39  1  0
 18 40  1  0
 19 41  1  0
M  END
$$$$
