
     RDKit          3D

 91 93  0  0  0  0  0  0  0  0999 V2000
    0.2380    1.1197    2.3656 C   0  0  2  0  0  0  0  0  0  0  0  0
    0.9890    2.4714    2.4017 C   0  0  0  0  0  0  0  0  0  0  0  0
    1.9071    2.6156    1.2137 C   0  0  0  0  0  0  0  0  0  0  0  0
    1.3902    3.0316   -0.0234 C   0  0  0  0  0  0  0  0  0  0  0  0
    2.2101    3.0883   -1.1634 C   0  0  0  0  0  0  0  0  0  0  0  0
    3.5658    2.7348   -1.0444 C   0  0  0  0  0  0  0  0  0  0  0  0
    4.0828    2.3144    0.1833 C   0  0  0  0  0  0  0  0  0  0  0  0
    3.2580    2.2492    1.3077 C   0  0  0  0  0  0  0  0  0  0  0  0
    1.6431    3.5110   -2.4696 C   0  0  0  0  0  0  0  0  0  0  0  0
    0.6207    4.5098   -2.5219 N   0  0  0  0  0  0  0  0  0  0  0  0
    2.0490    2.9741   -3.5785 N   0  0  0  0  0  0  0  0  0  0  0  0
   -0.8453    1.0698    3.3671 N   0  0  0  0  0  0  0  0  0  0  0  0
   -2.3825    1.5040    2.6684 S   0  0  0  0  0  6  0  0  0  0  0  0
   -2.2314    2.8773    2.0784 O   0  0  0  0  0  0  0  0  0  0  0  0
   -3.4284    1.5550    3.7462 O   0  0  0  0  0  0  0  0  0  0  0  0
   -2.8558    0.2740    1.4515 C   0  0  0  0  0  0  0  0  0  0  0  0
   -2.6515   -1.1114    1.7320 C   0  0  0  0  0  0  0  0  0  0  0  0
   -2.7120   -2.0392    0.6763 C   0  0  0  0  0  0  0  0  0  0  0  0
   -2.9761   -1.6377   -0.6356 C   0  0  0  0  0  0  0  0  0  0  0  0
   -3.3083   -0.3043   -0.8776 C   0  0  0  0  0  0  0  0  0  0  0  0
   -3.3360    0.6467    0.1592 C   0  0  0  0  0  0  0  0  0  0  0  0
   -3.9242    2.0226   -0.1465 C   0  0  0  0  0  0  0  0  0  0  0  0
   -5.3013    1.9257   -0.8249 C   0  0  0  0  0  0  0  0  0  0  0  0
   -2.9585    2.8521   -1.0012 C   0  0  0  0  0  0  0  0  0  0  0  0
   -2.9739   -2.6399   -1.7763 C   0  0  0  0  0  0  0  0  0  0  0  0
   -1.5922   -3.2837   -1.9407 C   0  0  0  0  0  0  0  0  0  0  0  0
   -4.0614   -3.7036   -1.5830 C   0  0  0  0  0  0  0  0  0  0  0  0
   -2.5096   -1.6566    3.1552 C   0  0  0  0  0  0  0  0  0  0  0  0
   -1.3110   -2.6079    3.3015 C   0  0  0  0  0  0  0  0  0  0  0  0
   -3.8061   -2.3521    3.5865 C   0  0  0  0  0  0  0  0  0  0  0  0
    1.2074   -0.0088    2.6415 C   0  0  0  0  0  0  0  0  0  0  0  0
    1.5354   -0.2321    3.8399 O   0  0  0  0  0  0  0  0  0  0  0  0
    1.8102   -0.7865    1.5796 N   0  0  0  0  0  0  0  0  0  0  0  0
    2.9677   -1.6468    1.8771 C   0  0  0  0  0  0  0  0  0  0  0  0
    3.9878   -1.5953    0.7320 C   0  0  0  0  0  0  0  0  0  0  0  0
    3.3391   -1.6714   -0.5844 N   0  0  0  0  0  0  0  0  0  0  0  0
    1.8853   -1.8619   -0.6620 C   0  0  0  0  0  0  0  0  0  0  0  0
    1.1880   -0.8471    0.2441 C   0  0  0  0  0  0  0  0  0  0  0  0
    4.1601   -1.6223   -1.7674 C   0  0  0  0  0  0  0  0  0  0  0  0
    5.3288   -2.0968   -1.7286 O   0  0  0  0  0  0  0  0  0  0  0  0
    3.6334   -1.0449   -3.0585 C   0  0  0  0  0  0  0  0  0  0  0  0
    4.7307   -0.4494   -3.9509 C   0  0  0  0  0  0  0  0  0  0  0  0
    5.3279    0.7285   -3.3273 N   0  0  0  0  0  0  0  0  0  0  0  0
   -0.1937    0.9964    1.3521 H   0  0  0  0  0  0  0  0  0  0  0  0
    1.5656    2.5661    3.3487 H   0  0  0  0  0  0  0  0  0  0  0  0
    0.2616    3.3101    2.3935 H   0  0  0  0  0  0  0  0  0  0  0  0
    0.3396    3.2760   -0.0986 H   0  0  0  0  0  0  0  0  0  0  0  0
    4.2313    2.8011   -1.8944 H   0  0  0  0  0  0  0  0  0  0  0  0
    5.1256    2.0356    0.2623 H   0  0  0  0  0  0  0  0  0  0  0  0
    3.6686    1.9019    2.2476 H   0  0  0  0  0  0  0  0  0  0  0  0
    0.1851    4.7703   -3.4347 H   0  0  0  0  0  0  0  0  0  0  0  0
    0.3283    5.0323   -1.6669 H   0  0  0  0  0  0  0  0  0  0  0  0
    2.7735    2.2236   -3.6158 H   0  0  0  0  0  0  0  0  0  0  0  0
   -0.6513    1.7221    4.1619 H   0  0  0  0  0  0  0  0  0  0  0  0
   -2.5549   -3.0898    0.8752 H   0  0  0  0  0  0  0  0  0  0  0  0
   -3.5728   -0.0093   -1.8844 H   0  0  0  0  0  0  0  0  0  0  0  0
   -4.1335    2.5676    0.7923 H   0  0  0  0  0  0  0  0  0  0  0  0
   -5.7757    2.9300   -0.8599 H   0  0  0  0  0  0  0  0  0  0  0  0
   -5.9664    1.2500   -0.2454 H   0  0  0  0  0  0  0  0  0  0  0  0
   -5.2245    1.5513   -1.8669 H   0  0  0  0  0  0  0  0  0  0  0  0
   -1.9659    2.9128   -0.5123 H   0  0  0  0  0  0  0  0  0  0  0  0
   -3.3498    3.8841   -1.1267 H   0  0  0  0  0  0  0  0  0  0  0  0
   -2.8266    2.3959   -2.0054 H   0  0  0  0  0  0  0  0  0  0  0  0
   -3.1994   -2.1164   -2.7323 H   0  0  0  0  0  0  0  0  0  0  0  0
   -1.5881   -3.9567   -2.8245 H   0  0  0  0  0  0  0  0  0  0  0  0
   -0.8270   -2.4958   -2.1028 H   0  0  0  0  0  0  0  0  0  0  0  0
   -1.3137   -3.8766   -1.0438 H   0  0  0  0  0  0  0  0  0  0  0  0
   -4.1116   -4.3616   -2.4767 H   0  0  0  0  0  0  0  0  0  0  0  0
   -3.8536   -4.3347   -0.6932 H   0  0  0  0  0  0  0  0  0  0  0  0
   -5.0516   -3.2161   -1.4550 H   0  0  0  0  0  0  0  0  0  0  0  0
   -2.3498   -0.8456    3.8862 H   0  0  0  0  0  0  0  0  0  0  0  0
   -0.4110   -2.1748    2.8238 H   0  0  0  0  0  0  0  0  0  0  0  0
   -1.0895   -2.7730    4.3776 H   0  0  0  0  0  0  0  0  0  0  0  0
   -1.5133   -3.5967    2.8394 H   0  0  0  0  0  0  0  0  0  0  0  0
   -4.6580   -1.6418    3.5193 H   0  0  0  0  0  0  0  0  0  0  0  0
   -4.0218   -3.2308    2.9417 H   0  0  0  0  0  0  0  0  0  0  0  0
   -3.7234   -2.6966    4.6396 H   0  0  0  0  0  0  0  0  0  0  0  0
    3.4806   -1.3278    2.8101 H   0  0  0  0  0  0  0  0  0  0  0  0
    2.6160   -2.6915    2.0195 H   0  0  0  0  0  0  0  0  0  0  0  0
    4.5526   -0.6403    0.7996 H   0  0  0  0  0  0  0  0  0  0  0  0
    4.7054   -2.4360    0.8487 H   0  0  0  0  0  0  0  0  0  0  0  0
    1.6354   -2.8918   -0.3265 H   0  0  0  0  0  0  0  0  0  0  0  0
    1.5034   -1.7527   -1.6971 H   0  0  0  0  0  0  0  0  0  0  0  0
    0.1181   -1.1315    0.3384 H   0  0  0  0  0  0  0  0  0  0  0  0
    1.2567    0.1492   -0.2405 H   0  0  0  0  0  0  0  0  0  0  0  0
    2.8936   -0.2461   -2.8342 H   0  0  0  0  0  0  0  0  0  0  0  0
    3.1149   -1.8519   -3.6188 H   0  0  0  0  0  0  0  0  0  0  0  0
    4.2682   -0.1494   -4.9168 H   0  0  0  0  0  0  0  0  0  0  0  0
    5.5132   -1.2091   -4.1734 H   0  0  0  0  0  0  0  0  0  0  0  0
    5.9574    1.1771   -4.0313 H   0  0  0  0  0  0  0  0  0  0  0  0
    5.9420    0.4152   -2.5413 H   0  0  0  0  0  0  0  0  0  0  0  0
  1  2  1  0
  2  3  1  0
  3  4  2  0
  4  5  1  0
  5  6  2  0
  6  7  1  0
  7  8  2  0
  5  9  1  0
  9 10  1  0
  9 11  2  3
  1 12  1  0
 12 13  1  0
 13 14  2  0
 13 15  2  0
 13 16  1  0
 16 17  2  0
 17 18  1  0
 18 19  2  0
 19 20  1  0
 20 21  2  0
 21 22  1  0
 22 23  1  0
 22 24  1  0
 19 25  1  0
 25 26  1  0
 25 27  1  0
 17 28  1  0
 28 29  1  0
 28 30  1  0
  1 31  1  0
 31 32  2  0
 31 33  1  0
 33 34  1  0
 34 35  1  0
 35 36  1  0
 36 37  1  0
 37 38  1  0
 36 39  1  0
 39 40  2  0
 39 41  1  0
 41 42  1  0
 42 43  1  0
  8  3  1  0
 21 16  1  0
 38 33  1  0
  1 44  1  6
  2 45  1  0
  2 46  1  0
  4 47  1  0
  6 48  1  0
  7 49  1  0
  8 50  1  0
 10 51  1  0
 10 52  1  0
 11 53  1  0
 12 54  1  0
 18 55  1  0
 20 56  1  0
 22 57  1  0
 23 58  1  0
 23 59  1  0
 23 60  1  0
 24 61  1  0
 24 62  1  0
 24 63  1  0
 25 64  1  0
 26 65  1  0
 26 66  1  0
 26 67  1  0
 27 68  1  0
 27 69  1  0
 27 70  1  0
 28 71  1  0
 29 72  1  0
 29 73  1  0
 29 74  1  0
 30 75  1  0
 30 76  1  0
 30 77  1  0
 34 78  1  0
 34 79  1  0
 35 80  1  0
 35 81  1  0
 37 82  1  0
 37 83  1  0
 38 84  1  0
 38 85  1  0
 41 86  1  0
 41 87  1  0
 42 88  1  0
 42 89  1  0
 43 90  1  0
 43 91  1  0
M  END
$$$$
