
     RDKit          3D

 43 44  0  0  0  0  0  0  0  0999 V2000
    4.7259   -0.5107   -0.8756 C   0  0  0  0  0  0  0  0  0  0  0  0
    4.0414    0.8494   -0.7854 C   0  0  0  0  0  0  0  0  0  0  0  0
    3.4710    1.0734    0.5918 C   0  0  0  0  0  0  0  0  0  0  0  0
    4.2234    1.7492    1.5004 N   0  0  0  0  0  0  0  0  0  0  0  0
    3.7835    1.9661    2.7657 C   0  0  0  0  0  0  0  0  0  0  0  0
    4.5971    2.6836    3.6906 N   0  0  0  0  0  0  0  0  0  0  0  0
    2.5695    1.4974    3.1502 N   0  0  0  0  0  0  0  0  0  0  0  0
    1.7722    0.8059    2.2944 C   0  0  0  0  0  0  0  0  0  0  0  0
    0.5030    0.3335    2.7609 N   0  0  0  0  0  0  0  0  0  0  0  0
    2.2109    0.5687    0.9767 C   0  0  0  0  0  0  0  0  0  0  0  0
    1.3915   -0.1764    0.0491 C   0  0  0  0  0  0  0  0  0  0  0  0
    0.7004   -0.7999   -0.7163 C   0  0  0  0  0  0  0  0  0  0  0  0
   -0.1568   -1.5598   -1.6299 C   0  0  0  0  0  0  0  0  0  0  0  0
   -1.5860   -1.1051   -1.4865 C   0  0  0  0  0  0  0  0  0  0  0  0
   -2.1489   -0.2615   -2.4588 C   0  0  0  0  0  0  0  0  0  0  0  0
   -3.4642    0.1971   -2.3377 C   0  0  0  0  0  0  0  0  0  0  0  0
   -3.9734    1.0325   -3.3433 O   0  0  0  0  0  0  0  0  0  0  0  0
   -5.2907    1.5731   -3.3492 C   0  0  0  0  0  0  0  0  0  0  0  0
   -4.2258   -0.1892   -1.2215 C   0  0  0  0  0  0  0  0  0  0  0  0
   -3.6729   -1.0170   -0.2423 C   0  0  0  0  0  0  0  0  0  0  0  0
   -2.3486   -1.4793   -0.3608 C   0  0  0  0  0  0  0  0  0  0  0  0
   -1.7603   -2.3001    0.6161 O   0  0  0  0  0  0  0  0  0  0  0  0
   -2.3998   -2.7091    1.8204 C   0  0  0  0  0  0  0  0  0  0  0  0
    5.1544   -0.6441   -1.8912 H   0  0  0  0  0  0  0  0  0  0  0  0
    5.5476   -0.5780   -0.1308 H   0  0  0  0  0  0  0  0  0  0  0  0
    3.9958   -1.3267   -0.6895 H   0  0  0  0  0  0  0  0  0  0  0  0
    3.2446    0.9209   -1.5565 H   0  0  0  0  0  0  0  0  0  0  0  0
    4.7867    1.6426   -1.0117 H   0  0  0  0  0  0  0  0  0  0  0  0
    4.2650    2.8533    4.6659 H   0  0  0  0  0  0  0  0  0  0  0  0
    5.5326    3.0460    3.4013 H   0  0  0  0  0  0  0  0  0  0  0  0
    0.2078    0.5224    3.7445 H   0  0  0  0  0  0  0  0  0  0  0  0
   -0.1526   -0.1991    2.1476 H   0  0  0  0  0  0  0  0  0  0  0  0
    0.2088   -1.4159   -2.6691 H   0  0  0  0  0  0  0  0  0  0  0  0
   -0.0747   -2.6415   -1.3924 H   0  0  0  0  0  0  0  0  0  0  0  0
   -1.5630    0.0445   -3.3172 H   0  0  0  0  0  0  0  0  0  0  0  0
   -5.4447    2.2132   -2.4549 H   0  0  0  0  0  0  0  0  0  0  0  0
   -5.4233    2.1949   -4.2581 H   0  0  0  0  0  0  0  0  0  0  0  0
   -6.0398    0.7534   -3.3666 H   0  0  0  0  0  0  0  0  0  0  0  0
   -5.2458    0.1483   -1.0984 H   0  0  0  0  0  0  0  0  0  0  0  0
   -4.2847   -1.2896    0.6066 H   0  0  0  0  0  0  0  0  0  0  0  0
   -3.3034   -3.3111    1.5879 H   0  0  0  0  0  0  0  0  0  0  0  0
   -2.6758   -1.8204    2.4264 H   0  0  0  0  0  0  0  0  0  0  0  0
   -1.6976   -3.3350    2.4083 H   0  0  0  0  0  0  0  0  0  0  0  0
  1  2  1  0
  2  3  1  0
  3  4  2  0
  4  5  1  0
  5  6  1  0
  5  7  2  0
  7  8  1  0
  8  9  1  0
  8 10  2  0
 10 11  1  0
 11 12  3  0
 12 13  1  0
 13 14  1  0
 14 15  2  0
 15 16  1  0
 16 17  1  0
 17 18  1  0
 16 19  2  0
 19 20  1  0
 20 21  2  0
 21 22  1  0
 22 23  1  0
 10  3  1  0
 21 14  1  0
  1 24  1  0
  1 25  1  0
  1 26  1  0
  2 27  1  0
  2 28  1  0
  6 29  1  0
  6 30  1  0
  9 31  1  0
  9 32  1  0
 13 33  1  0
 13 34  1  0
 15 35  1  0
 18 36  1  0
 18 37  1  0
 18 38  1  0
 19 39  1  0
 20 40  1  0
 23 41  1  0
 23 42  1  0
 23 43  1  0
M  END
$$$$
