
     RDKit          3D

 35 36  0  0  0  0  0  0  0  0999 V2000
    5.6379   -0.2170    0.1671 N   0  0  0  0  0  0  0  0  0  0  0  0
    4.2923   -0.6395   -0.0533 C   0  0  0  0  0  0  0  0  0  0  0  0
    4.0488   -1.9668   -0.5372 N   0  0  0  0  0  0  0  0  0  0  0  0
    3.3224    0.1859    0.2182 N   0  0  0  0  0  0  0  0  0  0  0  0
    1.9600   -0.0736   -0.0115 N   0  0  0  0  0  0  0  0  0  0  0  0
    0.9667    0.8171    0.5092 C   0  0  0  0  0  0  0  0  0  0  0  0
    1.3273    1.8547    1.1296 O   0  0  0  0  0  0  0  0  0  0  0  0
   -0.4379    0.5412    0.3269 N   0  0  0  0  0  0  0  0  0  0  0  0
   -0.9018   -0.8200    0.2037 C   0  0  0  0  0  0  0  0  0  0  0  0
   -0.4198   -1.8205    1.0669 C   0  0  0  0  0  0  0  0  0  0  0  0
   -0.8753   -3.1368    0.9462 C   0  0  0  0  0  0  0  0  0  0  0  0
   -1.8172   -3.4653   -0.0321 C   0  0  0  0  0  0  0  0  0  0  0  0
   -2.3061   -2.4776   -0.8911 C   0  0  0  0  0  0  0  0  0  0  0  0
   -1.8527   -1.1602   -0.7747 C   0  0  0  0  0  0  0  0  0  0  0  0
   -1.3881    1.6284    0.3061 C   0  0  0  0  0  0  0  0  0  0  0  0
   -2.6066    1.5237    1.0017 C   0  0  0  0  0  0  0  0  0  0  0  0
   -3.5292    2.5738    0.9737 C   0  0  0  0  0  0  0  0  0  0  0  0
   -3.2465    3.7356    0.2512 C   0  0  0  0  0  0  0  0  0  0  0  0
   -2.0409    3.8491   -0.4456 C   0  0  0  0  0  0  0  0  0  0  0  0
   -1.1150    2.8017   -0.4204 C   0  0  0  0  0  0  0  0  0  0  0  0
    6.4357   -0.8612   -0.0290 H   0  0  0  0  0  0  0  0  0  0  0  0
    5.8411    0.7419    0.5280 H   0  0  0  0  0  0  0  0  0  0  0  0
    3.1113   -2.4202   -0.4963 H   0  0  0  0  0  0  0  0  0  0  0  0
    4.8529   -2.5623   -0.8352 H   0  0  0  0  0  0  0  0  0  0  0  0
    1.6578   -0.8423   -0.6482 H   0  0  0  0  0  0  0  0  0  0  0  0
    0.3014   -1.5783    1.8371 H   0  0  0  0  0  0  0  0  0  0  0  0
   -0.5000   -3.9019    1.6135 H   0  0  0  0  0  0  0  0  0  0  0  0
   -2.1691   -4.4847   -0.1237 H   0  0  0  0  0  0  0  0  0  0  0  0
   -3.0358   -2.7331   -1.6485 H   0  0  0  0  0  0  0  0  0  0  0  0
   -2.2346   -0.4062   -1.4514 H   0  0  0  0  0  0  0  0  0  0  0  0
   -2.8368    0.6330    1.5725 H   0  0  0  0  0  0  0  0  0  0  0  0
   -4.4633    2.4871    1.5135 H   0  0  0  0  0  0  0  0  0  0  0  0
   -3.9621    4.5474    0.2301 H   0  0  0  0  0  0  0  0  0  0  0  0
   -1.8249    4.7480   -1.0086 H   0  0  0  0  0  0  0  0  0  0  0  0
   -0.1919    2.8989   -0.9775 H   0  0  0  0  0  0  0  0  0  0  0  0
  1  2  1  0
  2  3  1  0
  2  4  2  3
  4  5  1  0
  5  6  1  0
  6  7  2  0
  6  8  1  0
  8  9  1  0
  9 10  2  0
 10 11  1  0
 11 12  2  0
 12 13  1  0
 13 14  2  0
  8 15  1  0
 15 16  2  0
 16 17  1  0
 17 18  2  0
 18 19  1  0
 19 20  2  0
 14  9  1  0
 20 15  1  0
  1 21  1  0
  1 22  1  0
  3 23  1  0
  3 24  1  0
  5 25  1  0
 10 26  1  0
 11 27  1  0
 12 28  1  0
 13 29  1  0
 14 30  1  0
 16 31  1  0
 17 32  1  0
 18 33  1  0
 19 34  1  0
 20 35  1  0
M  END
$$$$
