
     RDKit          3D

255253  0  0  0  0  0  0  0  0999 V2000
    0.0000    0.0000    0.0000 O   0  0  0  0  0 15  0  0  0  0  0  0
    0.0000    0.0000    0.0000 O   0  0  0  0  0 15  0  0  0  0  0  0
    0.0000    0.0000    0.0000 O   0  0  0  0  0 15  0  0  0  0  0  0
    0.0000    0.0000    0.0000 Na  0  0  0  0  0 15  0  0  0  0  0  0
    0.0000    0.0000    0.0000 Fe  0  0  0  0  0 15  0  0  0  0  0  0
    0.0000    0.0000    0.0000 Fe  0  0  0  0  0 15  0  0  0  0  0  0
   -3.6488    1.0382    0.6494 O   0  0  0  0  0  0  0  0  0  0  0  0
   -2.2676    0.8369    0.7831 C   0  0  0  0  0  0  0  0  0  0  0  0
   -1.8167   -0.3663   -0.0741 C   0  0  1  0  0  0  0  0  0  0  0  0
   -2.0749   -0.1610   -1.4423 O   0  0  0  0  0  0  0  0  0  0  0  0
   -0.3398   -0.7794    0.1720 C   0  0  1  0  0  0  0  0  0  0  0  0
   -0.0878   -2.0052   -0.4694 O   0  0  0  0  0  0  0  0  0  0  0  0
    0.7057    0.2775   -0.2870 C   0  0  2  0  0  0  0  0  0  0  0  0
    0.7106    0.4334   -1.6867 O   0  0  0  0  0  0  0  0  0  0  0  0
    2.1251   -0.0419    0.2433 C   0  0  1  0  0  0  0  0  0  0  0  0
    2.5944   -1.2494   -0.2997 O   0  0  0  0  0  0  0  0  0  0  0  0
    3.0744    1.0727   -0.0984 C   0  0  0  0  0  0  0  0  0  0  0  0
    3.6960    1.1076   -1.3410 O   0  0  0  0  0  1  0  0  0  0  0  0
    3.2758    2.0052    0.7234 O   0  0  0  0  0  0  0  0  0  0  0  0
    1.3977   -2.0897    0.9720 O   0  0  0  0  0  0  0  0  0  0  0  0
    2.7178   -1.6989    0.7104 C   0  0  0  0  0  0  0  0  0  0  0  0
    2.7669   -0.2374    0.2495 C   0  0  1  0  0  0  0  0  0  0  0  0
    1.9498   -0.0605   -0.8845 O   0  0  0  0  0  0  0  0  0  0  0  0
    1.4822    1.2787   -0.8672 C   0  0  1  0  0  0  0  0  0  0  0  0
    2.2402    2.0557   -1.9610 C   0  0  0  0  0  0  0  0  0  0  0  0
    2.0353    1.4674   -3.2184 O   0  0  0  0  0  0  0  0  0  0  0  0
    0.0938    1.3479   -1.1897 O   0  0  0  0  0  0  0  0  0  0  0  0
   -0.7003    0.3519   -0.5608 C   0  0  1  0  0  0  0  0  0  0  0  0
   -1.9249    0.9478   -0.1715 O   0  0  0  0  0  0  0  0  0  0  0  0
   -2.7009    0.0960    0.6695 C   0  0  2  0  0  0  0  0  0  0  0  0
   -2.3623    0.3592    2.1482 C   0  0  0  0  0  0  0  0  0  0  0  0
   -3.2485   -0.3255    2.9923 O   0  0  0  0  0  0  0  0  0  0  0  0
   -2.5975   -1.4175    0.3001 C   0  0  1  0  0  0  0  0  0  0  0  0
   -3.7742   -2.1067    0.6465 O   0  0  0  0  0  0  0  0  0  0  0  0
   -2.2841   -1.5699   -1.1977 C   0  0  2  0  0  0  0  0  0  0  0  0
   -2.1610   -2.9320   -1.5155 O   0  0  0  0  0  0  0  0  0  0  0  0
   -0.9753   -0.8158   -1.5488 C   0  0  1  0  0  0  0  0  0  0  0  0
   -1.0155   -0.3665   -2.8813 O   0  0  0  0  0  0  0  0  0  0  0  0
    1.7810    1.9011    0.5239 C   0  0  1  0  0  0  0  0  0  0  0  0
    0.6353    2.4398    1.1330 O   0  0  0  0  0  0  0  0  0  0  0  0
    2.3090    0.7386    1.3301 C   0  0  2  0  0  0  0  0  0  0  0  0
    3.3821    1.1429    2.1406 O   0  0  0  0  0  0  0  0  0  0  0  0
   -4.0876   -0.4298   -1.9254 O   0  0  0  0  0  0  0  0  0  0  0  0
   -4.7056   -0.7005   -0.6946 C   0  0  0  0  0  0  0  0  0  0  0  0
   -3.7134   -0.5422    0.4673 C   0  0  1  0  0  0  0  0  0  0  0  0
   -2.5853   -1.3617    0.2344 O   0  0  0  0  0  0  0  0  0  0  0  0
   -1.4141   -0.6046    0.4621 C   0  0  1  0  0  0  0  0  0  0  0  0
   -0.9538   -0.9296    1.9133 C   0  0  0  0  0  0  0  0  0  0  0  0
   -0.0103   -0.0078    2.3849 O   0  0  0  0  0  0  0  0  0  0  0  0
   -0.4590   -1.0421   -0.5045 O   0  0  0  0  0  0  0  0  0  0  0  0
    0.8195   -0.4287   -0.4158 C   0  0  1  0  0  0  0  0  0  0  0  0
    1.6803   -1.2921    0.3096 O   0  0  0  0  0  0  0  0  0  0  0  0
    3.0100   -0.7993    0.4401 C   0  0  2  0  0  0  0  0  0  0  0  0
    3.1708    0.2239    1.5850 C   0  0  0  0  0  0  0  0  0  0  0  0
    2.6216    1.4697    1.2652 O   0  0  0  0  0  0  0  0  0  0  0  0
    3.6762   -0.3863   -0.9059 C   0  0  1  0  0  0  0  0  0  0  0  0
    4.0955   -1.5402   -1.5921 O   0  0  0  0  0  0  0  0  0  0  0  0
    2.7294    0.4090   -1.8264 C   0  0  2  0  0  0  0  0  0  0  0  0
    2.6301    1.7467   -1.4099 O   0  0  0  0  0  0  0  0  0  0  0  0
    1.3334   -0.2266   -1.8489 C   0  0  1  0  0  0  0  0  0  0  0  0
    1.3693   -1.4646   -2.5140 O   0  0  0  0  0  0  0  0  0  0  0  0
   -1.8071    0.8766    0.2670 C   0  0  1  0  0  0  0  0  0  0  0  0
   -1.6822    1.2346   -1.0869 O   0  0  0  0  0  0  0  0  0  0  0  0
   -3.2643    0.9084    0.6670 C   0  0  2  0  0  0  0  0  0  0  0  0
   -3.3910    1.2633    2.0210 O   0  0  0  0  0  0  0  0  0  0  0  0
   -3.6614    2.4509   -1.4470 O   0  0  0  0  0  0  0  0  0  0  0  0
   -3.3863    1.9325   -0.1754 C   0  0  0  0  0  0  0  0  0  0  0  0
   -3.0988    0.4330   -0.2829 C   0  0  1  0  0  0  0  0  0  0  0  0
   -1.9594    0.2178   -1.0845 O   0  0  0  0  0  0  0  0  0  0  0  0
   -1.3066   -0.9482   -0.6053 C   0  0  1  0  0  0  0  0  0  0  0  0
   -1.5173   -2.0544   -1.6573 C   0  0  0  0  0  0  0  0  0  0  0  0
   -0.7838   -3.2057   -1.3280 O   0  0  0  0  0  0  0  0  0  0  0  0
    0.1010   -0.7391   -0.5064 O   0  0  0  0  0  0  0  0  0  0  0  0
    0.4806    0.4849    0.1194 C   0  0  1  0  0  0  0  0  0  0  0  0
    1.2995    0.2283    1.2508 O   0  0  0  0  0  0  0  0  0  0  0  0
    2.4905   -0.4629    0.9012 C   0  0  2  0  0  0  0  0  0  0  0  0
    3.2332   -0.8255    2.1938 C   0  0  0  0  0  0  0  0  0  0  0  0
    3.5693    0.3330    2.9073 O   0  0  0  0  0  0  0  0  0  0  0  0
    3.3692    0.3959   -0.0405 C   0  0  1  0  0  0  0  0  0  0  0  0
    4.5065   -0.3270   -0.4405 O   0  0  0  0  0  0  0  0  0  0  0  0
    2.5575    0.7758   -1.2902 C   0  0  2  0  0  0  0  0  0  0  0  0
    3.2901    1.6482   -2.1152 O   0  0  0  0  0  0  0  0  0  0  0  0
    1.2097    1.4013   -0.8826 C   0  0  1  0  0  0  0  0  0  0  0  0
    0.4037    1.5977   -2.0155 O   0  0  0  0  0  0  0  0  0  0  0  0
   -1.9354   -1.3627    0.7520 C   0  0  1  0  0  0  0  0  0  0  0  0
   -0.9626   -1.5551    1.7470 O   0  0  0  0  0  0  0  0  0  0  0  0
   -2.8403   -0.1959    1.0845 C   0  0  2  0  0  0  0  0  0  0  0  0
   -4.0264   -0.5962    1.7291 O   0  0  0  0  0  0  0  0  0  0  0  0
    5.0113    1.7590    0.8754 O   0  0  0  0  0  0  0  0  0  0  0  0
    3.8675    1.1800    1.4438 C   0  0  0  0  0  0  0  0  0  0  0  0
    3.4940   -0.1182    0.7146 C   0  0  1  0  0  0  0  0  0  0  0  0
    2.3597   -0.6958    1.3289 O   0  0  0  0  0  0  0  0  0  0  0  0
    1.3215   -0.7934    0.3723 C   0  0  1  0  0  0  0  0  0  0  0  0
    0.6002   -2.1422    0.6422 C   0  0  0  0  0  0  0  0  0  0  0  0
   -0.0857   -2.1097    1.8654 O   0  0  0  0  0  0  0  0  0  0  0  0
    0.4951    0.3597    0.5602 O   0  0  0  0  0  0  0  0  0  0  0  0
   -0.8014    0.3079   -0.0204 C   0  0  1  0  0  0  0  0  0  0  0  0
   -1.7423    0.0044    0.9959 O   0  0  0  0  0  0  0  0  0  0  0  0
   -3.0418   -0.2720    0.4756 C   0  0  2  0  0  0  0  0  0  0  0  0
   -3.2004   -1.7788    0.2055 C   0  0  0  0  0  0  0  0  0  0  0  0
   -4.5310   -2.0916   -0.1084 O   0  0  0  0  0  0  0  0  0  0  0  0
   -3.4190    0.5919   -0.7674 C   0  0  1  0  0  0  0  0  0  0  0  0
   -4.8084    0.8009   -0.8398 O   0  0  0  0  0  0  0  0  0  0  0  0
   -2.6552    1.9296   -0.7168 C   0  0  2  0  0  0  0  0  0  0  0  0
   -2.9884    2.7501   -1.8094 O   0  0  0  0  0  0  0  0  0  0  0  0
   -1.1273    1.6899   -0.6487 C   0  0  1  0  0  0  0  0  0  0  0  0
   -0.5415    2.7277    0.0989 O   0  0  0  0  0  0  0  0  0  0  0  0
    2.0086   -0.7890   -1.0090 C   0  0  1  0  0  0  0  0  0  0  0  0
    1.1940   -0.2852   -2.0338 O   0  0  0  0  0  0  0  0  0  0  0  0
    3.1918    0.1127   -0.7680 C   0  0  2  0  0  0  0  0  0  0  0  0
    4.2846   -0.1944   -1.6011 O   0  0  0  0  0  0  0  0  0  0  0  0
   -2.2081    0.9229    2.2567 O   0  0  0  0  0  0  0  0  0  0  0  0
   -2.6063    1.8504    1.2844 C   0  0  0  0  0  0  0  0  0  0  0  0
   -2.5653    1.2121   -0.1086 C   0  0  1  0  0  0  0  0  0  0  0  0
   -1.2617    0.7349   -0.3634 O   0  0  0  0  0  0  0  0  0  0  0  0
   -1.3600   -0.5643   -0.9211 C   0  0  1  0  0  0  0  0  0  0  0  0
   -1.3052   -0.4585   -2.4656 C   0  0  0  0  0  0  0  0  0  0  0  0
   -1.1853   -1.7303   -3.0487 O   0  0  0  0  0  0  0  0  0  0  0  0
   -0.3079   -1.4174   -0.4710 O   0  0  0  0  0  0  0  0  0  0  0  0
    0.9227   -0.7433   -0.2632 C   0  0  1  0  0  0  0  0  0  0  0  0
    0.9318   -0.1863    1.0401 O   0  0  0  0  0  0  0  0  0  0  0  0
    2.0253    0.7074    1.2336 C   0  0  2  0  0  0  0  0  0  0  0  0
    1.6002    2.1412    0.8661 C   0  0  0  0  0  0  0  0  0  0  0  0
    2.5684    3.0726    1.2671 O   0  0  0  0  0  0  0  0  0  0  0  0
    3.3357    0.2672    0.5089 C   0  0  1  0  0  0  0  0  0  0  0  0
    4.4597    0.6625    1.2547 O   0  0  0  0  0  0  0  0  0  0  0  0
    3.3482   -1.2595    0.3512 C   0  0  2  0  0  0  0  0  0  0  0  0
    4.5075   -1.6473   -0.3401 O   0  0  0  0  0  0  0  0  0  0  0  0
    2.0859   -1.7502   -0.4045 C   0  0  1  0  0  0  0  0  0  0  0  0
    1.6964   -3.0038    0.0985 O   0  0  0  0  0  0  0  0  0  0  0  0
   -2.7036   -1.1531   -0.4578 C   0  0  1  0  0  0  0  0  0  0  0  0
   -2.5552   -1.8212    0.7717 O   0  0  0  0  0  0  0  0  0  0  0  0
   -3.5742    0.0634   -0.2516 C   0  0  2  0  0  0  0  0  0  0  0  0
   -4.3912    0.2618   -1.3772 O   0  0  0  0  0  0  0  0  0  0  0  0
   -4.0930    0.3467    1.2066 H   0  0  0  0  0  0  0  0  0  0  0  0
   -2.0087    0.6663    1.8532 H   0  0  0  0  0  0  0  0  0  0  0  0
   -1.7532    1.7641    0.4577 H   0  0  0  0  0  0  0  0  0  0  0  0
   -2.4421   -1.2284    0.2469 H   0  0  0  0  0  0  0  0  0  0  0  0
   -1.7844    0.7578   -1.6781 H   0  0  0  0  0  0  0  0  0  0  0  0
   -0.2132   -0.9159    1.2727 H   0  0  0  0  0  0  0  0  0  0  0  0
   -0.4996   -2.7165    0.0879 H   0  0  0  0  0  0  0  0  0  0  0  0
    0.4219    1.2549    0.1556 H   0  0  0  0  0  0  0  0  0  0  0  0
    0.9945   -0.4263   -2.0920 H   0  0  0  0  0  0  0  0  0  0  0  0
    2.0712   -0.1319    1.3542 H   0  0  0  0  0  0  0  0  0  0  0  0
    3.3600   -1.5392    0.2626 H   0  0  0  0  0  0  0  0  0  0  0  0
    1.4422   -3.0396    1.2552 H   0  0  0  0  0  0  0  0  0  0  0  0
    3.1426   -2.3423   -0.0923 H   0  0  0  0  0  0  0  0  0  0  0  0
    3.3390   -1.8243    1.6251 H   0  0  0  0  0  0  0  0  0  0  0  0
    3.8170   -0.0020   -0.0397 H   0  0  0  0  0  0  0  0  0  0  0  0
    3.3307    2.0396   -1.7461 H   0  0  0  0  0  0  0  0  0  0  0  0
    1.9151    3.1221   -1.9734 H   0  0  0  0  0  0  0  0  0  0  0  0
    1.1607    1.7985   -3.5515 H   0  0  0  0  0  0  0  0  0  0  0  0
   -0.1997   -0.0571    0.3447 H   0  0  0  0  0  0  0  0  0  0  0  0
   -3.7573    0.4095    0.5204 H   0  0  0  0  0  0  0  0  0  0  0  0
   -1.3290    0.0220    2.3735 H   0  0  0  0  0  0  0  0  0  0  0  0
   -2.4063    1.4529    2.3549 H   0  0  0  0  0  0  0  0  0  0  0  0
   -4.1054    0.1755    2.9717 H   0  0  0  0  0  0  0  0  0  0  0  0
   -1.7597   -1.8803    0.8689 H   0  0  0  0  0  0  0  0  0  0  0  0
   -4.5130   -1.7451    0.0904 H   0  0  0  0  0  0  0  0  0  0  0  0
   -3.1365   -1.1314   -1.7692 H   0  0  0  0  0  0  0  0  0  0  0  0
   -2.1954   -2.9967   -2.5057 H   0  0  0  0  0  0  0  0  0  0  0  0
   -0.1262   -1.5286   -1.4635 H   0  0  0  0  0  0  0  0  0  0  0  0
   -1.7181    0.3331   -2.9395 H   0  0  0  0  0  0  0  0  0  0  0  0
    2.5703    2.6891    0.4594 H   0  0  0  0  0  0  0  0  0  0  0  0
    0.4428    3.2927    0.6630 H   0  0  0  0  0  0  0  0  0  0  0  0
    1.4924    0.3031    1.9535 H   0  0  0  0  0  0  0  0  0  0  0  0
    3.5476    0.4025    2.7804 H   0  0  0  0  0  0  0  0  0  0  0  0
   -4.2303    0.5336   -2.1159 H   0  0  0  0  0  0  0  0  0  0  0  0
   -5.5957   -0.0477   -0.5365 H   0  0  0  0  0  0  0  0  0  0  0  0
   -5.0693   -1.7499   -0.7119 H   0  0  0  0  0  0  0  0  0  0  0  0
   -4.2233   -0.9069    1.3872 H   0  0  0  0  0  0  0  0  0  0  0  0
   -0.5219   -1.9552    1.9373 H   0  0  0  0  0  0  0  0  0  0  0  0
   -1.8330   -0.9212    2.5960 H   0  0  0  0  0  0  0  0  0  0  0  0
    0.2203   -0.2950    3.3064 H   0  0  0  0  0  0  0  0  0  0  0  0
    0.7617    0.5682    0.0648 H   0  0  0  0  0  0  0  0  0  0  0  0
    3.5998   -1.6704    0.8023 H   0  0  0  0  0  0  0  0  0  0  0  0
    2.6854   -0.1788    2.5013 H   0  0  0  0  0  0  0  0  0  0  0  0
    4.2550    0.3508    1.8050 H   0  0  0  0  0  0  0  0  0  0  0  0
    2.7474    2.0417    2.0662 H   0  0  0  0  0  0  0  0  0  0  0  0
    4.5706    0.2476   -0.6962 H   0  0  0  0  0  0  0  0  0  0  0  0
    4.9484   -1.8334   -1.1763 H   0  0  0  0  0  0  0  0  0  0  0  0
    3.1347    0.3928   -2.8663 H   0  0  0  0  0  0  0  0  0  0  0  0
    3.4780    2.1940   -1.6685 H   0  0  0  0  0  0  0  0  0  0  0  0
    0.6326    0.4595   -2.3807 H   0  0  0  0  0  0  0  0  0  0  0  0
    1.4157   -1.2676   -3.4860 H   0  0  0  0  0  0  0  0  0  0  0  0
   -1.1966    1.5655    0.8961 H   0  0  0  0  0  0  0  0  0  0  0  0
   -1.7192    2.2260   -1.1257 H   0  0  0  0  0  0  0  0  0  0  0  0
   -3.8490    1.6222    0.0391 H   0  0  0  0  0  0  0  0  0  0  0  0
   -3.2738    2.2481    2.0699 H   0  0  0  0  0  0  0  0  0  0  0  0
   -3.8352    3.4194   -1.3175 H   0  0  0  0  0  0  0  0  0  0  0  0
   -4.2648    2.0927    0.4892 H   0  0  0  0  0  0  0  0  0  0  0  0
   -2.5049    2.4565    0.2584 H   0  0  0  0  0  0  0  0  0  0  0  0
   -3.9677   -0.0599   -0.7756 H   0  0  0  0  0  0  0  0  0  0  0  0
   -1.1567   -1.6862   -2.6418 H   0  0  0  0  0  0  0  0  0  0  0  0
   -2.6019   -2.2869   -1.7755 H   0  0  0  0  0  0  0  0  0  0  0  0
   -1.3849   -3.7944   -0.8022 H   0  0  0  0  0  0  0  0  0  0  0  0
   -0.3853    1.0656    0.4993 H   0  0  0  0  0  0  0  0  0  0  0  0
    2.2489   -1.4279    0.3986 H   0  0  0  0  0  0  0  0  0  0  0  0
    4.1515   -1.4079    1.9576 H   0  0  0  0  0  0  0  0  0  0  0  0
    2.5724   -1.4671    2.8191 H   0  0  0  0  0  0  0  0  0  0  0  0
    4.0455    0.0260    3.7220 H   0  0  0  0  0  0  0  0  0  0  0  0
    3.6641    1.3356    0.4867 H   0  0  0  0  0  0  0  0  0  0  0  0
    5.2392   -0.0901    0.1860 H   0  0  0  0  0  0  0  0  0  0  0  0
    2.3540   -0.1497   -1.8745 H   0  0  0  0  0  0  0  0  0  0  0  0
    3.4610    2.4800   -1.6003 H   0  0  0  0  0  0  0  0  0  0  0  0
    1.3931    2.3788   -0.3754 H   0  0  0  0  0  0  0  0  0  0  0  0
    0.7296    2.4225   -2.4616 H   0  0  0  0  0  0  0  0  0  0  0  0
   -2.5421   -2.2926    0.6433 H   0  0  0  0  0  0  0  0  0  0  0  0
   -1.4322   -1.9414    2.5318 H   0  0  0  0  0  0  0  0  0  0  0  0
   -2.3017    0.5196    1.7455 H   0  0  0  0  0  0  0  0  0  0  0  0
   -4.5141   -1.2191    1.1290 H   0  0  0  0  0  0  0  0  0  0  0  0
    5.7838    1.2094    1.1702 H   0  0  0  0  0  0  0  0  0  0  0  0
    4.0416    0.9686    2.5234 H   0  0  0  0  0  0  0  0  0  0  0  0
    3.0270    1.9040    1.3772 H   0  0  0  0  0  0  0  0  0  0  0  0
    4.3358   -0.8367    0.8273 H   0  0  0  0  0  0  0  0  0  0  0  0
    1.3460   -2.9707    0.6527 H   0  0  0  0  0  0  0  0  0  0  0  0
   -0.1145   -2.3923   -0.1669 H   0  0  0  0  0  0  0  0  0  0  0  0
    0.5946   -2.2207    2.5796 H   0  0  0  0  0  0  0  0  0  0  0  0
   -0.8662   -0.4439   -0.8367 H   0  0  0  0  0  0  0  0  0  0  0  0
   -3.7511   -0.0161    1.2929 H   0  0  0  0  0  0  0  0  0  0  0  0
   -2.8731   -2.3584    1.0985 H   0  0  0  0  0  0  0  0  0  0  0  0
   -2.5568   -2.0863   -0.6445 H   0  0  0  0  0  0  0  0  0  0  0  0
   -5.0378   -2.0683    0.7450 H   0  0  0  0  0  0  0  0  0  0  0  0
   -3.1116    0.0571   -1.6939 H   0  0  0  0  0  0  0  0  0  0  0  0
   -5.0760    1.3405   -0.0505 H   0  0  0  0  0  0  0  0  0  0  0  0
   -2.9706    2.4606    0.2098 H   0  0  0  0  0  0  0  0  0  0  0  0
   -2.7798    2.2468   -2.6396 H   0  0  0  0  0  0  0  0  0  0  0  0
   -0.7140    1.6964   -1.6858 H   0  0  0  0  0  0  0  0  0  0  0  0
    0.3913    2.8318   -0.2258 H   0  0  0  0  0  0  0  0  0  0  0  0
    2.3505   -1.8212   -1.2624 H   0  0  0  0  0  0  0  0  0  0  0  0
    1.6641   -0.4734   -2.8875 H   0  0  0  0  0  0  0  0  0  0  0  0
    2.8893    1.1697   -0.9481 H   0  0  0  0  0  0  0  0  0  0  0  0
    4.5418   -1.1405   -1.4436 H   0  0  0  0  0  0  0  0  0  0  0  0
   -2.2447    1.4020    3.1249 H   0  0  0  0  0  0  0  0  0  0  0  0
   -1.9199    2.7261    1.3010 H   0  0  0  0  0  0  0  0  0  0  0  0
   -3.6372    2.2104    1.5009 H   0  0  0  0  0  0  0  0  0  0  0  0
   -2.7919    2.0107   -0.8502 H   0  0  0  0  0  0  0  0  0  0  0  0
   -0.4226    0.1424   -2.7676 H   0  0  0  0  0  0  0  0  0  0  0  0
   -2.1964    0.0831   -2.8589 H   0  0  0  0  0  0  0  0  0  0  0  0
   -2.0946   -2.0100   -3.3308 H   0  0  0  0  0  0  0  0  0  0  0  0
    1.0734    0.0484   -1.0356 H   0  0  0  0  0  0  0  0  0  0  0  0
    2.2325    0.6992    2.3266 H   0  0  0  0  0  0  0  0  0  0  0  0
    0.6251    2.3775    1.3492 H   0  0  0  0  0  0  0  0  0  0  0  0
    1.4553    2.2302   -0.2307 H   0  0  0  0  0  0  0  0  0  0  0  0
    2.4839    3.1649    2.2520 H   0  0  0  0  0  0  0  0  0  0  0  0
    3.3788    0.7140   -0.5145 H   0  0  0  0  0  0  0  0  0  0  0  0
    4.6958    1.5807    0.9617 H   0  0  0  0  0  0  0  0  0  0  0  0
    3.3610   -1.7005    1.3774 H   0  0  0  0  0  0  0  0  0  0  0  0
    4.6290   -2.6183   -0.1729 H   0  0  0  0  0  0  0  0  0  0  0  0
    2.3109   -1.8418   -1.4941 H   0  0  0  0  0  0  0  0  0  0  0  0
    2.3248   -3.6728   -0.2799 H   0  0  0  0  0  0  0  0  0  0  0  0
   -3.1564   -1.8431   -1.2090 H   0  0  0  0  0  0  0  0  0  0  0  0
   -2.2922   -2.7555    0.5622 H   0  0  0  0  0  0  0  0  0  0  0  0
   -4.2165   -0.0639    0.6530 H   0  0  0  0  0  0  0  0  0  0  0  0
   -5.0557    0.9550   -1.1248 H   0  0  0  0  0  0  0  0  0  0  0  0
  7  8  1  0
  8  9  1  0
  9 10  1  0
  9 11  1  0
 11 12  1  0
 11 13  1  0
 13 14  1  0
 13 15  1  0
 15 16  1  0
 15 17  1  0
 17 18  1  0
 17 19  2  0
 20 21  1  0
 21 22  1  0
 22 23  1  0
 23 24  1  0
 24 25  1  0
 25 26  1  0
 24 27  1  6
 27 28  1  0
 28 29  1  0
 29 30  1  0
 30 31  1  0
 31 32  1  0
 30 33  1  0
 33 34  1  0
 33 35  1  0
 35 36  1  0
 35 37  1  0
 37 38  1  0
 24 39  1  0
 39 40  1  0
 39 41  1  0
 41 42  1  0
 43 44  1  0
 44 45  1  0
 45 46  1  0
 46 47  1  0
 47 48  1  0
 48 49  1  0
 47 50  1  6
 50 51  1  0
 51 52  1  0
 52 53  1  0
 53 54  1  0
 54 55  1  0
 53 56  1  0
 56 57  1  0
 56 58  1  0
 58 59  1  0
 58 60  1  0
 60 61  1  0
 47 62  1  0
 62 63  1  0
 62 64  1  0
 64 65  1  0
 66 67  1  0
 67 68  1  0
 68 69  1  0
 69 70  1  0
 70 71  1  0
 71 72  1  0
 70 73  1  1
 73 74  1  0
 74 75  1  0
 75 76  1  0
 76 77  1  0
 77 78  1  0
 76 79  1  0
 79 80  1  0
 79 81  1  0
 81 82  1  0
 81 83  1  0
 83 84  1  0
 70 85  1  0
 85 86  1  0
 85 87  1  0
 87 88  1  0
 89 90  1  0
 90 91  1  0
 91 92  1  0
 92 93  1  0
 93 94  1  0
 94 95  1  0
 93 96  1  6
 96 97  1  0
 97 98  1  0
 98 99  1  0
 99100  1  0
100101  1  0
 99102  1  0
102103  1  0
102104  1  0
104105  1  0
104106  1  0
106107  1  0
 93108  1  0
108109  1  0
108110  1  0
110111  1  0
112113  1  0
113114  1  0
114115  1  0
115116  1  0
116117  1  0
117118  1  0
116119  1  1
119120  1  0
120121  1  0
121122  1  0
122123  1  0
123124  1  0
122125  1  0
125126  1  0
125127  1  0
127128  1  0
127129  1  0
129130  1  0
116131  1  0
131132  1  0
131133  1  0
133134  1  0
 41 22  1  0
 64 45  1  0
 87 68  1  0
110 91  1  0
133114  1  0
 37 28  1  0
 60 51  1  0
 83 74  1  0
106 97  1  0
129120  1  0
  7135  1  0
  8136  1  0
  8137  1  0
  9138  1  1
 10139  1  0
 11140  1  1
 12141  1  0
 13142  1  1
 14143  1  0
 15144  1  1
 16145  1  0
 20146  1  0
 21147  1  0
 21148  1  0
 22149  1  6
 25150  1  0
 25151  1  0
 26152  1  0
 28153  1  1
 30154  1  1
 31155  1  0
 31156  1  0
 32157  1  0
 33158  1  1
 34159  1  0
 35160  1  6
 36161  1  0
 37162  1  6
 38163  1  0
 39164  1  6
 40165  1  0
 41166  1  1
 42167  1  0
 43168  1  0
 44169  1  0
 44170  1  0
 45171  1  1
 48172  1  0
 48173  1  0
 49174  1  0
 51175  1  1
 53176  1  1
 54177  1  0
 54178  1  0
 55179  1  0
 56180  1  1
 57181  1  0
 58182  1  6
 59183  1  0
 60184  1  6
 61185  1  0
 62186  1  1
 63187  1  0
 64188  1  6
 65189  1  0
 66190  1  0
 67191  1  0
 67192  1  0
 68193  1  6
 71194  1  0
 71195  1  0
 72196  1  0
 74197  1  1
 76198  1  6
 77199  1  0
 77200  1  0
 78201  1  0
 79202  1  1
 80203  1  0
 81204  1  6
 82205  1  0
 83206  1  1
 84207  1  0
 85208  1  6
 86209  1  0
 87210  1  1
 88211  1  0
 89212  1  0
 90213  1  0
 90214  1  0
 91215  1  6
 94216  1  0
 94217  1  0
 95218  1  0
 97219  1  6
 99220  1  1
100221  1  0
100222  1  0
101223  1  0
102224  1  6
103225  1  0
104226  1  1
105227  1  0
106228  1  6
107229  1  0
108230  1  6
109231  1  0
110232  1  1
111233  1  0
112234  1  0
113235  1  0
113236  1  0
114237  1  6
117238  1  0
117239  1  0
118240  1  0
120241  1  6
122242  1  1
123243  1  0
123244  1  0
124245  1  0
125246  1  6
126247  1  0
127248  1  1
128249  1  0
129250  1  6
130251  1  0
131252  1  6
132253  1  0
133254  1  1
134255  1  0
M  CHG  7   1  -2   2  -2   3  -2   4   1   5   3   6   3  18  -1
M  END
$$$$
